aceglatone
  CDK     0628171802

 28 29  0  0  0  0  0  0  0  0999 V2000
    2.4868   -3.9882    0.5665 O   0  0  0  0  0  0  0  0  0  0  0  0
    2.6898   -4.7073   -0.5786 C   0  0  0  0  0  0  0  0  0  0  0  0
    1.4922   -4.0943    1.6035 C   0  0  1  0  0  0  0  0  0  0  0  0
    3.8376   -4.3448   -1.4198 C   0  0  0  0  0  0  0  0  0  0  0  0
    1.9273   -5.6344   -0.9367 O   0  0  0  0  0  0  0  0  0  0  0  0
    0.3881   -3.0193    1.4569 C   0  0  2  0  0  0  0  0  0  0  0  0
    0.7229   -5.3374    1.6881 C   0  0  0  0  0  0  0  0  0  0  0  0
   -0.9579   -3.7697    1.5772 C   0  0  2  0  0  0  0  0  0  0  0  0
    0.3479   -2.4244    0.1605 O   0  0  0  0  0  0  0  0  0  0  0  0
    1.2356   -6.4679    1.8441 O   0  0  0  0  0  0  0  0  0  0  0  0
   -0.6073   -5.1484    1.6427 O   0  0  0  0  0  0  0  0  0  0  0  0
   -1.7677   -3.4224    0.3074 C   0  0  2  0  0  0  0  0  0  0  0  0
   -0.8170   -2.6416   -0.4771 C   0  0  0  0  0  0  0  0  0  0  0  0
   -2.9044   -2.6165    0.6486 O   0  0  0  0  0  0  0  0  0  0  0  0
   -1.0496   -2.2106   -1.6281 O   0  0  0  0  0  0  0  0  0  0  0  0
   -4.2230   -2.9130    0.4610 C   0  0  0  0  0  0  0  0  0  0  0  0
   -5.2426   -1.9742    0.9442 C   0  0  0  0  0  0  0  0  0  0  0  0
   -4.5890   -3.9726   -0.0991 O   0  0  0  0  0  0  0  0  0  0  0  0
    0.4868   -2.2379    2.2179 H   0  0  0  0  0  0  0  0  0  0  0  0
   -1.4917   -3.4944    2.4923 H   0  0  0  0  0  0  0  0  0  0  0  0
    2.0079   -3.9682    2.5569 H   0  0  0  0  0  0  0  0  0  0  0  0
    3.8453   -4.9144   -2.3526 H   0  0  0  0  0  0  0  0  0  0  0  0
    3.7923   -3.2803   -1.6573 H   0  0  0  0  0  0  0  0  0  0  0  0
    4.7597   -4.5478   -0.8736 H   0  0  0  0  0  0  0  0  0  0  0  0
   -2.0437   -4.3247   -0.2446 H   0  0  0  0  0  0  0  0  0  0  0  0
   -5.8669   -2.4657    1.6923 H   0  0  0  0  0  0  0  0  0  0  0  0
   -5.8665   -1.6422    0.1125 H   0  0  0  0  0  0  0  0  0  0  0  0
   -4.7744   -1.1021    1.4024 H   0  0  0  0  0  0  0  0  0  0  0  0
  1  2  1  0  0  0  0 
  2  4  1  0  0  0  0 
  2  5  2  0  0  0  0 
  3  1  1  0  0  0  0 
  6  3  1  0  0  0  0 
  3  7  1  0  0  0  0 
  8  6  1  0  0  0  0 
  6  9  1  0  0  0  0 
  6 19  1  0  0  0  0 
  7 10  2  0  0  0  0 
  7 11  1  0  0  0  0 
  8 11  1  0  0  0  0 
 12  8  1  0  0  0  0 
  8 20  1  0  0  0  0 
  9 13  1  0  0  0  0 
 12 13  1  0  0  0  0 
 12 14  1  0  0  0  0 
 13 15  2  0  0  0  0 
 14 16  1  0  0  0  0 
 16 17  1  0  0  0  0 
 16 18  2  0  0  0  0 
  3 21  1  0  0  0  0 
  4 22  1  0  0  0  0 
  4 23  1  0  0  0  0 
  4 24  1  0  0  0  0 
 12 25  1  0  0  0  0 
 17 26  1  0  0  0  0 
 17 27  1  0  0  0  0 
 17 28  1  0  0  0  0 
M  END
> <cdk:Title>
aceglatone

> <Conformer>
1

> <SuperDrugID>
SD000022

$$$$
aceglatone
  CDK     0628171802

 28 29  0  0  0  0  0  0  0  0999 V2000
    1.5373   -5.3688    2.1087 O   0  0  0  0  0  0  0  0  0  0  0  0
    1.7241   -6.4094    1.2434 C   0  0  0  0  0  0  0  0  0  0  0  0
    0.3555   -4.6904    2.5747 C   0  0  1  0  0  0  0  0  0  0  0  0
    3.0984   -6.8167    0.9320 C   0  0  0  0  0  0  0  0  0  0  0  0
    0.7765   -7.0184    0.6969 O   0  0  0  0  0  0  0  0  0  0  0  0
    0.2966   -3.2493    2.0066 C   0  0  2  0  0  0  0  0  0  0  0  0
   -0.9488   -5.2376    2.1814 C   0  0  0  0  0  0  0  0  0  0  0  0
   -1.0682   -3.1182    1.2916 C   0  0  2  0  0  0  0  0  0  0  0  0
    1.2611   -3.0007    0.9859 O   0  0  0  0  0  0  0  0  0  0  0  0
   -1.3661   -6.3657    2.5287 O   0  0  0  0  0  0  0  0  0  0  0  0
   -1.6818   -4.3957    1.4284 O   0  0  0  0  0  0  0  0  0  0  0  0
   -0.7646   -2.7409   -0.1779 C   0  0  2  0  0  0  0  0  0  0  0  0
    0.6971   -2.7291   -0.2068 C   0  0  0  0  0  0  0  0  0  0  0  0
   -1.2580   -1.4247   -0.4710 O   0  0  0  0  0  0  0  0  0  0  0  0
    1.3744   -2.4886   -1.2310 O   0  0  0  0  0  0  0  0  0  0  0  0
   -2.2474   -1.0683   -1.3405 C   0  0  0  0  0  0  0  0  0  0  0  0
   -2.6212    0.3467   -1.4628 C   0  0  0  0  0  0  0  0  0  0  0  0
   -2.8638   -1.9217   -2.0204 O   0  0  0  0  0  0  0  0  0  0  0  0
    0.4105   -2.5032    2.7980 H   0  0  0  0  0  0  0  0  0  0  0  0
   -1.7057   -2.3731    1.7765 H   0  0  0  0  0  0  0  0  0  0  0  0
    0.4042   -4.6634    3.6659 H   0  0  0  0  0  0  0  0  0  0  0  0
    3.8200   -6.1616    1.4226 H   0  0  0  0  0  0  0  0  0  0  0  0
    3.2631   -7.8369    1.2806 H   0  0  0  0  0  0  0  0  0  0  0  0
    3.2637   -6.7670   -0.1457 H   0  0  0  0  0  0  0  0  0  0  0  0
   -1.1478   -3.4952   -0.8727 H   0  0  0  0  0  0  0  0  0  0  0  0
   -2.5124    0.6754   -2.4967 H   0  0  0  0  0  0  0  0  0  0  0  0
   -1.9878    0.9719   -0.8319 H   0  0  0  0  0  0  0  0  0  0  0  0
   -3.6581    0.4724   -1.1504 H   0  0  0  0  0  0  0  0  0  0  0  0
  1  2  1  0  0  0  0 
  2  4  1  0  0  0  0 
  2  5  2  0  0  0  0 
  3  1  1  0  0  0  0 
  6  3  1  0  0  0  0 
  3  7  1  0  0  0  0 
  8  6  1  0  0  0  0 
  6  9  1  0  0  0  0 
  6 19  1  0  0  0  0 
  7 10  2  0  0  0  0 
  7 11  1  0  0  0  0 
  8 11  1  0  0  0  0 
 12  8  1  0  0  0  0 
  8 20  1  0  0  0  0 
  9 13  1  0  0  0  0 
 12 13  1  0  0  0  0 
 12 14  1  0  0  0  0 
 13 15  2  0  0  0  0 
 14 16  1  0  0  0  0 
 16 17  1  0  0  0  0 
 16 18  2  0  0  0  0 
  3 21  1  0  0  0  0 
  4 22  1  0  0  0  0 
  4 23  1  0  0  0  0 
  4 24  1  0  0  0  0 
 12 25  1  0  0  0  0 
 17 26  1  0  0  0  0 
 17 27  1  0  0  0  0 
 17 28  1  0  0  0  0 
M  END
> <cdk:Title>
aceglatone

> <Conformer>
2

> <SuperDrugID>
SD000022

$$$$
aceglatone
  CDK     0628171802

 28 29  0  0  0  0  0  0  0  0999 V2000
    1.2081   -1.9392   -0.7302 O   0  0  0  0  0  0  0  0  0  0  0  0
    1.5067   -2.2980   -2.0141 C   0  0  0  0  0  0  0  0  0  0  0  0
    1.2820   -2.6363    0.5295 C   0  0  1  0  0  0  0  0  0  0  0  0
    1.2028   -1.3302   -3.0749 C   0  0  0  0  0  0  0  0  0  0  0  0
    2.0067   -3.4072   -2.3120 O   0  0  0  0  0  0  0  0  0  0  0  0
   -0.1338   -2.7676    1.1473 C   0  0  2  0  0  0  0  0  0  0  0  0
    1.7527   -4.0252    0.5338 C   0  0  0  0  0  0  0  0  0  0  0  0
   -0.3312   -4.2636    1.4886 C   0  0  2  0  0  0  0  0  0  0  0  0
   -1.1792   -2.4737    0.2236 O   0  0  0  0  0  0  0  0  0  0  0  0
    2.8953   -4.3815    0.1674 O   0  0  0  0  0  0  0  0  0  0  0  0
    0.8576   -4.8986    1.0309 O   0  0  0  0  0  0  0  0  0  0  0  0
   -1.5933   -4.7308    0.7241 C   0  0  2  0  0  0  0  0  0  0  0  0
   -1.9610   -3.5370   -0.0336 C   0  0  0  0  0  0  0  0  0  0  0  0
   -2.6647   -5.0575    1.6246 O   0  0  0  0  0  0  0  0  0  0  0  0
   -2.9134   -3.4853   -0.8428 O   0  0  0  0  0  0  0  0  0  0  0  0
   -3.3122   -6.2512    1.7683 C   0  0  0  0  0  0  0  0  0  0  0  0
   -4.4062   -6.3548    2.7427 C   0  0  0  0  0  0  0  0  0  0  0  0
   -2.9930   -7.2631    1.1014 O   0  0  0  0  0  0  0  0  0  0  0  0
   -0.2438   -2.1345    2.0329 H   0  0  0  0  0  0  0  0  0  0  0  0
   -0.4321   -4.4177    2.5668 H   0  0  0  0  0  0  0  0  0  0  0  0
    1.9281   -2.0554    1.1937 H   0  0  0  0  0  0  0  0  0  0  0  0
    1.5620   -1.6767   -4.0463 H   0  0  0  0  0  0  0  0  0  0  0  0
    0.1234   -1.1891   -3.1310 H   0  0  0  0  0  0  0  0  0  0  0  0
    1.6697   -0.3710   -2.8502 H   0  0  0  0  0  0  0  0  0  0  0  0
   -1.3584   -5.5533    0.0404 H   0  0  0  0  0  0  0  0  0  0  0  0
   -5.3306   -6.6384    2.2367 H   0  0  0  0  0  0  0  0  0  0  0  0
   -4.5604   -5.3983    3.2443 H   0  0  0  0  0  0  0  0  0  0  0  0
   -4.1652   -7.1079    3.4949 H   0  0  0  0  0  0  0  0  0  0  0  0
  1  2  1  0  0  0  0 
  2  4  1  0  0  0  0 
  2  5  2  0  0  0  0 
  3  1  1  0  0  0  0 
  6  3  1  0  0  0  0 
  3  7  1  0  0  0  0 
  8  6  1  0  0  0  0 
  6  9  1  0  0  0  0 
  6 19  1  0  0  0  0 
  7 10  2  0  0  0  0 
  7 11  1  0  0  0  0 
  8 11  1  0  0  0  0 
 12  8  1  0  0  0  0 
  8 20  1  0  0  0  0 
  9 13  1  0  0  0  0 
 12 13  1  0  0  0  0 
 12 14  1  0  0  0  0 
 13 15  2  0  0  0  0 
 14 16  1  0  0  0  0 
 16 17  1  0  0  0  0 
 16 18  2  0  0  0  0 
  3 21  1  0  0  0  0 
  4 22  1  0  0  0  0 
  4 23  1  0  0  0  0 
  4 24  1  0  0  0  0 
 12 25  1  0  0  0  0 
 17 26  1  0  0  0  0 
 17 27  1  0  0  0  0 
 17 28  1  0  0  0  0 
M  END
> <cdk:Title>
aceglatone

> <Conformer>
3

> <SuperDrugID>
SD000022

$$$$
aceglatone
  CDK     0628171802

 28 29  0  0  0  0  0  0  0  0999 V2000
    2.3917   -4.2689    1.5418 O   0  0  0  0  0  0  0  0  0  0  0  0
    3.7104   -4.4332    1.8489 C   0  0  0  0  0  0  0  0  0  0  0  0
    1.2697   -4.0580    2.4130 C   0  0  1  0  0  0  0  0  0  0  0  0
    4.2082   -4.6456    3.2180 C   0  0  0  0  0  0  0  0  0  0  0  0
    4.5125   -4.4486    0.8896 O   0  0  0  0  0  0  0  0  0  0  0  0
    0.3325   -2.9466    1.8824 C   0  0  2  0  0  0  0  0  0  0  0  0
    0.4167   -5.2436    2.3585 C   0  0  0  0  0  0  0  0  0  0  0  0
   -0.9085   -3.6766    1.3295 C   0  0  2  0  0  0  0  0  0  0  0  0
    0.8571   -2.2296    0.7696 O   0  0  0  0  0  0  0  0  0  0  0  0
    0.7565   -6.3630    2.8027 O   0  0  0  0  0  0  0  0  0  0  0  0
   -0.7600   -5.0312    1.7433 O   0  0  0  0  0  0  0  0  0  0  0  0
   -0.8540   -3.5095   -0.2103 C   0  0  2  0  0  0  0  0  0  0  0  0
    0.2165   -2.5264   -0.3794 C   0  0  0  0  0  0  0  0  0  0  0  0
   -2.0783   -3.0289   -0.7834 O   0  0  0  0  0  0  0  0  0  0  0  0
    0.5475   -2.0346   -1.4823 O   0  0  0  0  0  0  0  0  0  0  0  0
   -3.2797   -3.6747   -0.7666 C   0  0  0  0  0  0  0  0  0  0  0  0
   -4.4140   -3.0621   -1.4657 C   0  0  0  0  0  0  0  0  0  0  0  0
   -3.4256   -4.7693   -0.1703 O   0  0  0  0  0  0  0  0  0  0  0  0
    0.0515   -2.2485    2.6766 H   0  0  0  0  0  0  0  0  0  0  0  0
   -1.8241   -3.2545    1.7555 H   0  0  0  0  0  0  0  0  0  0  0  0
    1.5597   -3.8535    3.4467 H   0  0  0  0  0  0  0  0  0  0  0  0
    5.2867   -4.8164    3.2210 H   0  0  0  0  0  0  0  0  0  0  0  0
    3.9949   -3.7690    3.8312 H   0  0  0  0  0  0  0  0  0  0  0  0
    3.7174   -5.5184    3.6516 H   0  0  0  0  0  0  0  0  0  0  0  0
   -0.5584   -4.4415   -0.7017 H   0  0  0  0  0  0  0  0  0  0  0  0
   -5.3242   -3.6453   -1.3196 H   0  0  0  0  0  0  0  0  0  0  0  0
   -4.1929   -3.0139   -2.5324 H   0  0  0  0  0  0  0  0  0  0  0  0
   -4.5773   -2.0506   -1.0911 H   0  0  0  0  0  0  0  0  0  0  0  0
  1  2  1  0  0  0  0 
  2  4  1  0  0  0  0 
  2  5  2  0  0  0  0 
  3  1  1  0  0  0  0 
  6  3  1  0  0  0  0 
  3  7  1  0  0  0  0 
  8  6  1  0  0  0  0 
  6  9  1  0  0  0  0 
  6 19  1  0  0  0  0 
  7 10  2  0  0  0  0 
  7 11  1  0  0  0  0 
  8 11  1  0  0  0  0 
 12  8  1  0  0  0  0 
  8 20  1  0  0  0  0 
  9 13  1  0  0  0  0 
 12 13  1  0  0  0  0 
 12 14  1  0  0  0  0 
 13 15  2  0  0  0  0 
 14 16  1  0  0  0  0 
 16 17  1  0  0  0  0 
 16 18  2  0  0  0  0 
  3 21  1  0  0  0  0 
  4 22  1  0  0  0  0 
  4 23  1  0  0  0  0 
  4 24  1  0  0  0  0 
 12 25  1  0  0  0  0 
 17 26  1  0  0  0  0 
 17 27  1  0  0  0  0 
 17 28  1  0  0  0  0 
M  END
> <cdk:Title>
aceglatone

> <Conformer>
4

> <SuperDrugID>
SD000022

$$$$
aceglatone
  CDK     0628171802

 28 29  0  0  0  0  0  0  0  0999 V2000
    2.0594   -3.4349   -0.2849 O   0  0  0  0  0  0  0  0  0  0  0  0
    3.2763   -3.0562   -0.7796 C   0  0  0  0  0  0  0  0  0  0  0  0
    1.6129   -3.4842    1.0828 C   0  0  1  0  0  0  0  0  0  0  0  0
    4.4569   -2.7711    0.0580 C   0  0  0  0  0  0  0  0  0  0  0  0
    3.3715   -2.9772   -2.0249 O   0  0  0  0  0  0  0  0  0  0  0  0
    0.2188   -2.8364    1.2829 C   0  0  2  0  0  0  0  0  0  0  0  0
    1.3692   -4.8737    1.4740 C   0  0  0  0  0  0  0  0  0  0  0  0
   -0.7491   -3.9997    1.5973 C   0  0  2  0  0  0  0  0  0  0  0  0
   -0.3421   -2.2151    0.1303 O   0  0  0  0  0  0  0  0  0  0  0  0
    2.2671   -5.7421    1.5447 O   0  0  0  0  0  0  0  0  0  0  0  0
    0.0795   -5.1443    1.7516 O   0  0  0  0  0  0  0  0  0  0  0  0
   -1.6852   -4.1265    0.3734 C   0  0  2  0  0  0  0  0  0  0  0  0
   -1.4342   -2.8652   -0.3220 C   0  0  0  0  0  0  0  0  0  0  0  0
   -3.0595   -4.3023    0.7588 O   0  0  0  0  0  0  0  0  0  0  0  0
   -2.1142   -2.4459   -1.2845 O   0  0  0  0  0  0  0  0  0  0  0  0
   -3.8600   -5.3802    0.4790 C   0  0  0  0  0  0  0  0  0  0  0  0
   -5.2684   -5.3858    0.8998 C   0  0  0  0  0  0  0  0  0  0  0  0
   -3.4249   -6.3824   -0.1363 O   0  0  0  0  0  0  0  0  0  0  0  0
    0.2432   -2.1128    2.1037 H   0  0  0  0  0  0  0  0  0  0  0  0
   -1.3061   -3.8042    2.5192 H   0  0  0  0  0  0  0  0  0  0  0  0
    2.3342   -3.0418    1.7755 H   0  0  0  0  0  0  0  0  0  0  0  0
    5.3457   -2.6146   -0.5552 H   0  0  0  0  0  0  0  0  0  0  0  0
    4.2767   -1.8702    0.6449 H   0  0  0  0  0  0  0  0  0  0  0  0
    4.6492   -3.6085    0.7304 H   0  0  0  0  0  0  0  0  0  0  0  0
   -1.3498   -4.9344   -0.2825 H   0  0  0  0  0  0  0  0  0  0  0  0
   -5.9069   -5.4637    0.0177 H   0  0  0  0  0  0  0  0  0  0  0  0
   -5.5196   -4.4695    1.4374 H   0  0  0  0  0  0  0  0  0  0  0  0
   -5.4594   -6.2380    1.5554 H   0  0  0  0  0  0  0  0  0  0  0  0
  1  2  1  0  0  0  0 
  2  4  1  0  0  0  0 
  2  5  2  0  0  0  0 
  3  1  1  0  0  0  0 
  6  3  1  0  0  0  0 
  3  7  1  0  0  0  0 
  8  6  1  0  0  0  0 
  6  9  1  0  0  0  0 
  6 19  1  0  0  0  0 
  7 10  2  0  0  0  0 
  7 11  1  0  0  0  0 
  8 11  1  0  0  0  0 
 12  8  1  0  0  0  0 
  8 20  1  0  0  0  0 
  9 13  1  0  0  0  0 
 12 13  1  0  0  0  0 
 12 14  1  0  0  0  0 
 13 15  2  0  0  0  0 
 14 16  1  0  0  0  0 
 16 17  1  0  0  0  0 
 16 18  2  0  0  0  0 
  3 21  1  0  0  0  0 
  4 22  1  0  0  0  0 
  4 23  1  0  0  0  0 
  4 24  1  0  0  0  0 
 12 25  1  0  0  0  0 
 17 26  1  0  0  0  0 
 17 27  1  0  0  0  0 
 17 28  1  0  0  0  0 
M  END
> <cdk:Title>
aceglatone

> <Conformer>
5

> <SuperDrugID>
SD000022

$$$$
aceglatone
  CDK     0628171802

 28 29  0  0  0  0  0  0  0  0999 V2000
   -2.5798   -4.8388    0.3427 O   0  0  0  0  0  0  0  0  0  0  0  0
   -3.6558   -5.1453   -0.4476 C   0  0  0  0  0  0  0  0  0  0  0  0
   -2.1048   -3.5670    0.8226 C   0  0  1  0  0  0  0  0  0  0  0  0
   -4.7352   -4.2180   -0.8406 C   0  0  0  0  0  0  0  0  0  0  0  0
   -3.7263   -6.3270   -0.8542 O   0  0  0  0  0  0  0  0  0  0  0  0
   -0.9141   -3.7249    1.8039 C   0  0  2  0  0  0  0  0  0  0  0  0
   -1.5174   -2.7527   -0.2445 C   0  0  0  0  0  0  0  0  0  0  0  0
    0.3121   -3.0844    1.1166 C   0  0  2  0  0  0  0  0  0  0  0  0
   -0.5224   -5.0716    2.0495 O   0  0  0  0  0  0  0  0  0  0  0  0
   -2.1573   -2.3154   -1.2272 O   0  0  0  0  0  0  0  0  0  0  0  0
   -0.2040   -2.5079   -0.0781 O   0  0  0  0  0  0  0  0  0  0  0  0
    1.3211   -4.2291    0.8481 C   0  0  2  0  0  0  0  0  0  0  0  0
    0.7024   -5.3492    1.5622 C   0  0  0  0  0  0  0  0  0  0  0  0
    2.6384   -3.8858    1.3172 O   0  0  0  0  0  0  0  0  0  0  0  0
    1.2228   -6.4803    1.6814 O   0  0  0  0  0  0  0  0  0  0  0  0
    3.8065   -4.5659    1.1093 C   0  0  0  0  0  0  0  0  0  0  0  0
    5.0603   -3.9964    1.6276 C   0  0  0  0  0  0  0  0  0  0  0  0
    3.8367   -5.6472    0.4745 O   0  0  0  0  0  0  0  0  0  0  0  0
   -1.1276   -3.2310    2.7571 H   0  0  0  0  0  0  0  0  0  0  0  0
    0.7482   -2.3022    1.7453 H   0  0  0  0  0  0  0  0  0  0  0  0
   -2.9136   -3.0207    1.3141 H   0  0  0  0  0  0  0  0  0  0  0  0
   -5.7045   -4.6414   -0.5667 H   0  0  0  0  0  0  0  0  0  0  0  0
   -4.6379   -3.2470   -0.3559 H   0  0  0  0  0  0  0  0  0  0  0  0
   -4.7055   -4.0733   -1.9222 H   0  0  0  0  0  0  0  0  0  0  0  0
    1.3589   -4.4593   -0.2199 H   0  0  0  0  0  0  0  0  0  0  0  0
    5.2294   -3.0166    1.1773 H   0  0  0  0  0  0  0  0  0  0  0  0
    5.9130   -4.6402    1.3987 H   0  0  0  0  0  0  0  0  0  0  0  0
    4.9914   -3.8804    2.7093 H   0  0  0  0  0  0  0  0  0  0  0  0
  1  2  1  0  0  0  0 
  2  4  1  0  0  0  0 
  2  5  2  0  0  0  0 
  3  1  1  0  0  0  0 
  6  3  1  0  0  0  0 
  3  7  1  0  0  0  0 
  8  6  1  0  0  0  0 
  6  9  1  0  0  0  0 
  6 19  1  0  0  0  0 
  7 10  2  0  0  0  0 
  7 11  1  0  0  0  0 
  8 11  1  0  0  0  0 
 12  8  1  0  0  0  0 
  8 20  1  0  0  0  0 
  9 13  1  0  0  0  0 
 12 13  1  0  0  0  0 
 12 14  1  0  0  0  0 
 13 15  2  0  0  0  0 
 14 16  1  0  0  0  0 
 16 17  1  0  0  0  0 
 16 18  2  0  0  0  0 
  3 21  1  0  0  0  0 
  4 22  1  0  0  0  0 
  4 23  1  0  0  0  0 
  4 24  1  0  0  0  0 
 12 25  1  0  0  0  0 
 17 26  1  0  0  0  0 
 17 27  1  0  0  0  0 
 17 28  1  0  0  0  0 
M  END
> <cdk:Title>
aceglatone

> <Conformer>
6

> <SuperDrugID>
SD000022

$$$$
aceglatone
  CDK     0628171802

 28 29  0  0  0  0  0  0  0  0999 V2000
   -2.1149   -5.6499    0.9498 O   0  0  0  0  0  0  0  0  0  0  0  0
   -3.2158   -6.4168    0.6925 C   0  0  0  0  0  0  0  0  0  0  0  0
   -2.0394   -4.2577    1.2968 C   0  0  1  0  0  0  0  0  0  0  0  0
   -4.5866   -6.0599    1.1031 C   0  0  0  0  0  0  0  0  0  0  0  0
   -3.0104   -7.5166    0.1309 O   0  0  0  0  0  0  0  0  0  0  0  0
   -0.6686   -3.8914    1.9199 C   0  0  2  0  0  0  0  0  0  0  0  0
   -2.0601   -3.4216    0.0926 C   0  0  0  0  0  0  0  0  0  0  0  0
    0.0567   -3.0065    0.8830 C   0  0  2  0  0  0  0  0  0  0  0  0
    0.2108   -4.9916    2.1286 O   0  0  0  0  0  0  0  0  0  0  0  0
   -3.0450   -3.3198   -0.6731 O   0  0  0  0  0  0  0  0  0  0  0  0
   -0.9053   -2.7686   -0.1371 O   0  0  0  0  0  0  0  0  0  0  0  0
    1.2700   -3.8268    0.3850 C   0  0  2  0  0  0  0  0  0  0  0  0
    1.2974   -4.9411    1.3326 C   0  0  0  0  0  0  0  0  0  0  0  0
    2.4853   -3.0579    0.4207 O   0  0  0  0  0  0  0  0  0  0  0  0
    2.2062   -5.8001    1.3786 O   0  0  0  0  0  0  0  0  0  0  0  0
    3.1707   -2.5220   -0.6349 C   0  0  0  0  0  0  0  0  0  0  0  0
    2.6560   -2.4980   -2.0168 C   0  0  0  0  0  0  0  0  0  0  0  0
    4.2781   -1.9969   -0.3809 O   0  0  0  0  0  0  0  0  0  0  0  0
   -0.8037   -3.3530    2.8638 H   0  0  0  0  0  0  0  0  0  0  0  0
    0.3695   -2.0563    1.3309 H   0  0  0  0  0  0  0  0  0  0  0  0
   -2.8472   -3.9686    1.9753 H   0  0  0  0  0  0  0  0  0  0  0  0
   -5.3133   -6.7749    0.7124 H   0  0  0  0  0  0  0  0  0  0  0  0
   -4.6456   -6.0657    2.1911 H   0  0  0  0  0  0  0  0  0  0  0  0
   -4.8501   -5.0686    0.7362 H   0  0  0  0  0  0  0  0  0  0  0  0
    1.0793   -4.2397   -0.6082 H   0  0  0  0  0  0  0  0  0  0  0  0
    1.6833   -2.0065   -2.0338 H   0  0  0  0  0  0  0  0  0  0  0  0
    2.5484   -3.5156   -2.3899 H   0  0  0  0  0  0  0  0  0  0  0  0
    3.3284   -1.9573   -2.6835 H   0  0  0  0  0  0  0  0  0  0  0  0
  1  2  1  0  0  0  0 
  2  4  1  0  0  0  0 
  2  5  2  0  0  0  0 
  3  1  1  0  0  0  0 
  6  3  1  0  0  0  0 
  3  7  1  0  0  0  0 
  8  6  1  0  0  0  0 
  6  9  1  0  0  0  0 
  6 19  1  0  0  0  0 
  7 10  2  0  0  0  0 
  7 11  1  0  0  0  0 
  8 11  1  0  0  0  0 
 12  8  1  0  0  0  0 
  8 20  1  0  0  0  0 
  9 13  1  0  0  0  0 
 12 13  1  0  0  0  0 
 12 14  1  0  0  0  0 
 13 15  2  0  0  0  0 
 14 16  1  0  0  0  0 
 16 17  1  0  0  0  0 
 16 18  2  0  0  0  0 
  3 21  1  0  0  0  0 
  4 22  1  0  0  0  0 
  4 23  1  0  0  0  0 
  4 24  1  0  0  0  0 
 12 25  1  0  0  0  0 
 17 26  1  0  0  0  0 
 17 27  1  0  0  0  0 
 17 28  1  0  0  0  0 
M  END
> <cdk:Title>
aceglatone

> <Conformer>
7

> <SuperDrugID>
SD000022

$$$$
aceglatone
  CDK     0628171802

 28 29  0  0  0  0  0  0  0  0999 V2000
   -1.6019   -4.8608   -0.4082 O   0  0  0  0  0  0  0  0  0  0  0  0
   -2.2496   -5.2700   -1.5357 C   0  0  0  0  0  0  0  0  0  0  0  0
   -1.6879   -3.5806    0.2366 C   0  0  1  0  0  0  0  0  0  0  0  0
   -3.7039   -5.1065   -1.7074 C   0  0  0  0  0  0  0  0  0  0  0  0
   -1.5769   -5.8979   -2.3847 O   0  0  0  0  0  0  0  0  0  0  0  0
   -1.0330   -3.6009    1.6377 C   0  0  2  0  0  0  0  0  0  0  0  0
   -0.8122   -2.6493   -0.4755 C   0  0  0  0  0  0  0  0  0  0  0  0
    0.3977   -3.0641    1.4334 C   0  0  2  0  0  0  0  0  0  0  0  0
   -0.8632   -4.9041    2.1841 O   0  0  0  0  0  0  0  0  0  0  0  0
   -1.0949   -2.1274   -1.5766 O   0  0  0  0  0  0  0  0  0  0  0  0
    0.3740   -2.4658    0.1410 O   0  0  0  0  0  0  0  0  0  0  0  0
    1.3300   -4.2934    1.5807 C   0  0  2  0  0  0  0  0  0  0  0  0
    0.4302   -5.2827    2.1751 C   0  0  0  0  0  0  0  0  0  0  0  0
    2.4339   -4.0428    2.4629 O   0  0  0  0  0  0  0  0  0  0  0  0
    0.8030   -6.4000    2.5974 O   0  0  0  0  0  0  0  0  0  0  0  0
    3.5491   -3.3087    2.1838 C   0  0  0  0  0  0  0  0  0  0  0  0
    4.4010   -3.5282    1.0000 C   0  0  0  0  0  0  0  0  0  0  0  0
    3.9092   -2.4692    3.0388 O   0  0  0  0  0  0  0  0  0  0  0  0
   -1.5855   -2.9653    2.3371 H   0  0  0  0  0  0  0  0  0  0  0  0
    0.6295   -2.3050    2.1839 H   0  0  0  0  0  0  0  0  0  0  0  0
   -2.7161   -3.2189    0.3033 H   0  0  0  0  0  0  0  0  0  0  0  0
   -4.0502   -5.5803   -2.6272 H   0  0  0  0  0  0  0  0  0  0  0  0
   -4.2163   -5.5733   -0.8660 H   0  0  0  0  0  0  0  0  0  0  0  0
   -3.9673   -4.0496   -1.7415 H   0  0  0  0  0  0  0  0  0  0  0  0
    1.6629   -4.6749    0.6122 H   0  0  0  0  0  0  0  0  0  0  0  0
    5.4143   -3.7769    1.3195 H   0  0  0  0  0  0  0  0  0  0  0  0
    4.4354   -2.6230    0.3938 H   0  0  0  0  0  0  0  0  0  0  0  0
    4.0313   -4.3460    0.3831 H   0  0  0  0  0  0  0  0  0  0  0  0
  1  2  1  0  0  0  0 
  2  4  1  0  0  0  0 
  2  5  2  0  0  0  0 
  3  1  1  0  0  0  0 
  6  3  1  0  0  0  0 
  3  7  1  0  0  0  0 
  8  6  1  0  0  0  0 
  6  9  1  0  0  0  0 
  6 19  1  0  0  0  0 
  7 10  2  0  0  0  0 
  7 11  1  0  0  0  0 
  8 11  1  0  0  0  0 
 12  8  1  0  0  0  0 
  8 20  1  0  0  0  0 
  9 13  1  0  0  0  0 
 12 13  1  0  0  0  0 
 12 14  1  0  0  0  0 
 13 15  2  0  0  0  0 
 14 16  1  0  0  0  0 
 16 17  1  0  0  0  0 
 16 18  2  0  0  0  0 
  3 21  1  0  0  0  0 
  4 22  1  0  0  0  0 
  4 23  1  0  0  0  0 
  4 24  1  0  0  0  0 
 12 25  1  0  0  0  0 
 17 26  1  0  0  0  0 
 17 27  1  0  0  0  0 
 17 28  1  0  0  0  0 
M  END
> <cdk:Title>
aceglatone

> <Conformer>
8

> <SuperDrugID>
SD000022

$$$$
aceglatone
  CDK     0628171802

 28 29  0  0  0  0  0  0  0  0999 V2000
   -0.9489   -5.7502   -0.1495 O   0  0  0  0  0  0  0  0  0  0  0  0
   -1.6037   -6.7349   -0.8221 C   0  0  0  0  0  0  0  0  0  0  0  0
   -1.4144   -5.0140    0.9912 C   0  0  1  0  0  0  0  0  0  0  0  0
   -2.2066   -7.8834   -0.1243 C   0  0  0  0  0  0  0  0  0  0  0  0
   -1.5774   -6.6880   -2.0731 O   0  0  0  0  0  0  0  0  0  0  0  0
   -0.2566   -4.2274    1.6440 C   0  0  2  0  0  0  0  0  0  0  0  0
   -2.2499   -3.9136    0.5069 C   0  0  0  0  0  0  0  0  0  0  0  0
   -0.2606   -2.8589    0.9356 C   0  0  2  0  0  0  0  0  0  0  0  0
    1.0336   -4.7670    1.3818 O   0  0  0  0  0  0  0  0  0  0  0  0
   -3.4517   -4.0322    0.1825 O   0  0  0  0  0  0  0  0  0  0  0  0
   -1.5664   -2.7581    0.3741 O   0  0  0  0  0  0  0  0  0  0  0  0
    0.8935   -2.9380   -0.0942 C   0  0  2  0  0  0  0  0  0  0  0  0
    1.6840   -4.0527    0.4411 C   0  0  0  0  0  0  0  0  0  0  0  0
    1.6146   -1.6983   -0.1722 O   0  0  0  0  0  0  0  0  0  0  0  0
    2.8221   -4.3697    0.0313 O   0  0  0  0  0  0  0  0  0  0  0  0
    2.5891   -1.4424   -1.0906 C   0  0  0  0  0  0  0  0  0  0  0  0
    2.2362   -0.9751   -2.4387 C   0  0  0  0  0  0  0  0  0  0  0  0
    3.7913   -1.5644   -0.7609 O   0  0  0  0  0  0  0  0  0  0  0  0
   -0.4179   -4.1077    2.7209 H   0  0  0  0  0  0  0  0  0  0  0  0
   -0.0927   -2.0562    1.6605 H   0  0  0  0  0  0  0  0  0  0  0  0
   -1.9209   -5.6434    1.7276 H   0  0  0  0  0  0  0  0  0  0  0  0
   -2.5805   -8.6244   -0.8326 H   0  0  0  0  0  0  0  0  0  0  0  0
   -1.4545   -8.3563    0.5086 H   0  0  0  0  0  0  0  0  0  0  0  0
   -3.0329   -7.5464    0.5002 H   0  0  0  0  0  0  0  0  0  0  0  0
    0.5120   -3.2181   -1.0822 H   0  0  0  0  0  0  0  0  0  0  0  0
    2.7088   -0.0129   -2.6355 H   0  0  0  0  0  0  0  0  0  0  0  0
    1.1554   -0.8613   -2.5332 H   0  0  0  0  0  0  0  0  0  0  0  0
    2.5763   -1.7013   -3.1775 H   0  0  0  0  0  0  0  0  0  0  0  0
  1  2  1  0  0  0  0 
  2  4  1  0  0  0  0 
  2  5  2  0  0  0  0 
  3  1  1  0  0  0  0 
  6  3  1  0  0  0  0 
  3  7  1  0  0  0  0 
  8  6  1  0  0  0  0 
  6  9  1  0  0  0  0 
  6 19  1  0  0  0  0 
  7 10  2  0  0  0  0 
  7 11  1  0  0  0  0 
  8 11  1  0  0  0  0 
 12  8  1  0  0  0  0 
  8 20  1  0  0  0  0 
  9 13  1  0  0  0  0 
 12 13  1  0  0  0  0 
 12 14  1  0  0  0  0 
 13 15  2  0  0  0  0 
 14 16  1  0  0  0  0 
 16 17  1  0  0  0  0 
 16 18  2  0  0  0  0 
  3 21  1  0  0  0  0 
  4 22  1  0  0  0  0 
  4 23  1  0  0  0  0 
  4 24  1  0  0  0  0 
 12 25  1  0  0  0  0 
 17 26  1  0  0  0  0 
 17 27  1  0  0  0  0 
 17 28  1  0  0  0  0 
M  END
> <cdk:Title>
aceglatone

> <Conformer>
9

> <SuperDrugID>
SD000022

$$$$
aceglatone
  CDK     0628171802

 28 29  0  0  0  0  0  0  0  0999 V2000
   -1.5376   -3.9596   -0.8024 O   0  0  0  0  0  0  0  0  0  0  0  0
   -1.7869   -4.0492   -2.1369 C   0  0  0  0  0  0  0  0  0  0  0  0
   -1.2294   -2.7638   -0.0672 C   0  0  1  0  0  0  0  0  0  0  0  0
   -2.9448   -3.3928   -2.7610 C   0  0  0  0  0  0  0  0  0  0  0  0
   -1.0611   -4.8060   -2.8206 O   0  0  0  0  0  0  0  0  0  0  0  0
   -1.1350   -3.0613    1.4479 C   0  0  2  0  0  0  0  0  0  0  0  0
    0.1450   -2.3524   -0.3583 C   0  0  0  0  0  0  0  0  0  0  0  0
    0.3606   -3.3216    1.7151 C   0  0  2  0  0  0  0  0  0  0  0  0
   -1.7937   -4.2583    1.8500 O   0  0  0  0  0  0  0  0  0  0  0  0
    0.4876   -1.7455   -1.3971 O   0  0  0  0  0  0  0  0  0  0  0  0
    1.0217   -2.7479    0.5882 O   0  0  0  0  0  0  0  0  0  0  0  0
    0.4811   -4.8616    1.8165 C   0  0  2  0  0  0  0  0  0  0  0  0
   -0.9114   -5.2545    2.0662 C   0  0  0  0  0  0  0  0  0  0  0  0
    1.3967   -5.2576    2.8489 O   0  0  0  0  0  0  0  0  0  0  0  0
   -1.2738   -6.4107    2.3755 O   0  0  0  0  0  0  0  0  0  0  0  0
    1.7806   -6.5481    3.0545 C   0  0  0  0  0  0  0  0  0  0  0  0
    2.9047   -7.1133    2.2964 C   0  0  0  0  0  0  0  0  0  0  0  0
    1.1960   -7.2382    3.9203 O   0  0  0  0  0  0  0  0  0  0  0  0
   -1.4881   -2.2103    2.0384 H   0  0  0  0  0  0  0  0  0  0  0  0
    0.6807   -2.8298    2.6414 H   0  0  0  0  0  0  0  0  0  0  0  0
   -1.9504   -1.9648   -0.2592 H   0  0  0  0  0  0  0  0  0  0  0  0
   -3.4559   -2.7467   -2.0466 H   0  0  0  0  0  0  0  0  0  0  0  0
   -2.6116   -2.7925   -3.6085 H   0  0  0  0  0  0  0  0  0  0  0  0
   -3.6526   -4.1455   -3.1100 H   0  0  0  0  0  0  0  0  0  0  0  0
    0.7990   -5.2752    0.8541 H   0  0  0  0  0  0  0  0  0  0  0  0
    3.6916   -7.4419    2.9760 H   0  0  0  0  0  0  0  0  0  0  0  0
    3.3177   -6.3653    1.6160 H   0  0  0  0  0  0  0  0  0  0  0  0
    2.5565   -7.9672    1.7142 H   0  0  0  0  0  0  0  0  0  0  0  0
  1  2  1  0  0  0  0 
  2  4  1  0  0  0  0 
  2  5  2  0  0  0  0 
  3  1  1  0  0  0  0 
  6  3  1  0  0  0  0 
  3  7  1  0  0  0  0 
  8  6  1  0  0  0  0 
  6  9  1  0  0  0  0 
  6 19  1  0  0  0  0 
  7 10  2  0  0  0  0 
  7 11  1  0  0  0  0 
  8 11  1  0  0  0  0 
 12  8  1  0  0  0  0 
  8 20  1  0  0  0  0 
  9 13  1  0  0  0  0 
 12 13  1  0  0  0  0 
 12 14  1  0  0  0  0 
 13 15  2  0  0  0  0 
 14 16  1  0  0  0  0 
 16 17  1  0  0  0  0 
 16 18  2  0  0  0  0 
  3 21  1  0  0  0  0 
  4 22  1  0  0  0  0 
  4 23  1  0  0  0  0 
  4 24  1  0  0  0  0 
 12 25  1  0  0  0  0 
 17 26  1  0  0  0  0 
 17 27  1  0  0  0  0 
 17 28  1  0  0  0  0 
M  END
> <cdk:Title>
aceglatone

> <Conformer>
10

> <SuperDrugID>
SD000022

$$$$
