acamprosate
  CDK     0628171801

 22 21  0  0  0  0  0  0  0  0999 V2000
   -5.1902   -2.6891   -3.1753 C   0  0  0  0  0  0  0  0  0  0  0  0
   -5.1929   -2.1604   -1.8024 C   0  0  0  0  0  0  0  0  0  0  0  0
   -6.2753   -2.0620   -1.1768 O   0  0  0  0  0  0  0  0  0  0  0  0
   -4.0096   -1.7999   -1.2412 N   0  0  0  0  0  0  0  0  0  0  0  0
   -3.8490   -1.3202    0.0940 C   0  0  2  0  0  0  0  0  0  0  0  0
   -2.3463   -1.1344    0.4167 C   0  0  2  0  0  0  0  0  0  0  0  0
   -2.1104   -0.4766    1.7992 C   0  0  2  0  0  0  0  0  0  0  0  0
   -0.3386   -0.4672    2.2586 S   0  0  2  0  0  0  0  0  0  0  0  0
    0.6009    0.1287    0.9607 O   0  0  0  0  0  0  0  0  0  0  0  0
    0.1458   -1.9567    2.6000 O   0  0  0  0  0  0  0  0  0  0  0  0
   -0.1058    0.4796    3.5295 O   0  0  0  0  0  0  0  0  0  0  0  0
   -4.5435   -3.5661   -3.2255 H   0  0  0  0  0  0  0  0  0  0  0  0
   -6.1935   -2.9799   -3.4925 H   0  0  0  0  0  0  0  0  0  0  0  0
   -4.8137   -1.9295   -3.8614 H   0  0  0  0  0  0  0  0  0  0  0  0
   -3.2123   -1.8806   -1.7885 H   0  0  0  0  0  0  0  0  0  0  0  0
   -4.2759   -2.0458    0.7939 H   0  0  0  0  0  0  0  0  0  0  0  0
   -4.3782   -0.3685    0.2047 H   0  0  0  0  0  0  0  0  0  0  0  0
   -1.8918   -0.5072   -0.3551 H   0  0  0  0  0  0  0  0  0  0  0  0
   -1.8565   -2.1123    0.3919 H   0  0  0  0  0  0  0  0  0  0  0  0
   -2.6568   -1.0187    2.5747 H   0  0  0  0  0  0  0  0  0  0  0  0
   -2.4684    0.5547    1.7791 H   0  0  0  0  0  0  0  0  0  0  0  0
   -0.0482    0.5277    0.3475 H   0  0  0  0  0  0  0  0  0  0  0  0
  1  2  1  0  0  0  0 
  2  3  2  0  0  0  0 
  2  4  1  0  0  0  0 
  4  5  1  0  0  0  0 
  5  6  1  0  0  0  0 
  6  7  1  0  0  0  0 
  7  8  1  0  0  0  0 
  8  9  1  0  0  0  0 
  8 10  2  0  0  0  0 
  8 11  2  0  0  0  0 
  1 12  1  0  0  0  0 
  1 13  1  0  0  0  0 
  1 14  1  0  0  0  0 
  4 15  1  0  0  0  0 
  5 16  1  0  0  0  0 
  5 17  1  0  0  0  0 
  6 18  1  0  0  0  0 
  6 19  1  0  0  0  0 
  7 20  1  0  0  0  0 
  7 21  1  0  0  0  0 
  9 22  1  0  0  0  0 
M  END
> <cdk:Title>
acamprosate

> <Conformer>
1

> <SuperDrugID>
SD000016

$$$$
acamprosate
  CDK     0628171801

 22 21  0  0  0  0  0  0  0  0999 V2000
   -5.1856   -2.6262   -3.1963 C   0  0  0  0  0  0  0  0  0  0  0  0
   -5.1806   -2.2499   -1.7739 C   0  0  0  0  0  0  0  0  0  0  0  0
   -6.2357   -2.3241   -1.1013 O   0  0  0  0  0  0  0  0  0  0  0  0
   -4.0136   -1.8229   -1.2301 N   0  0  0  0  0  0  0  0  0  0  0  0
   -3.8351   -1.3321    0.0975 C   0  0  2  0  0  0  0  0  0  0  0  0
   -2.3254   -1.1453    0.3895 C   0  0  2  0  0  0  0  0  0  0  0  0
   -2.0563   -0.3627    1.6981 C   0  0  2  0  0  0  0  0  0  0  0  0
   -0.2861   -0.3921    2.1627 S   0  0  2  0  0  0  0  0  0  0  0  0
   -0.0284    0.7197    3.4358 O   0  0  0  0  0  0  0  0  0  0  0  0
    0.6352    0.0295    0.9222 O   0  0  0  0  0  0  0  0  0  0  0  0
    0.1190   -1.8517    2.6837 O   0  0  0  0  0  0  0  0  0  0  0  0
   -4.4990   -3.4584   -3.3611 H   0  0  0  0  0  0  0  0  0  0  0  0
   -6.1833   -2.9217   -3.5247 H   0  0  0  0  0  0  0  0  0  0  0  0
   -4.8631   -1.7744   -3.7986 H   0  0  0  0  0  0  0  0  0  0  0  0
   -3.2390   -1.8191   -1.8105 H   0  0  0  0  0  0  0  0  0  0  0  0
   -4.2553   -2.0330    0.8232 H   0  0  0  0  0  0  0  0  0  0  0  0
   -4.3530   -0.3751    0.1939 H   0  0  0  0  0  0  0  0  0  0  0  0
   -1.8623   -0.5959   -0.4362 H   0  0  0  0  0  0  0  0  0  0  0  0
   -1.8608   -2.1346    0.4476 H   0  0  0  0  0  0  0  0  0  0  0  0
   -2.6284   -0.7893    2.5232 H   0  0  0  0  0  0  0  0  0  0  0  0
   -2.3597    0.6792    1.5695 H   0  0  0  0  0  0  0  0  0  0  0  0
   -0.8775    1.2000    3.5152 H   0  0  0  0  0  0  0  0  0  0  0  0
  1  2  1  0  0  0  0 
  2  3  2  0  0  0  0 
  2  4  1  0  0  0  0 
  4  5  1  0  0  0  0 
  5  6  1  0  0  0  0 
  6  7  1  0  0  0  0 
  7  8  1  0  0  0  0 
  8  9  1  0  0  0  0 
  8 10  2  0  0  0  0 
  8 11  2  0  0  0  0 
  1 12  1  0  0  0  0 
  1 13  1  0  0  0  0 
  1 14  1  0  0  0  0 
  4 15  1  0  0  0  0 
  5 16  1  0  0  0  0 
  5 17  1  0  0  0  0 
  6 18  1  0  0  0  0 
  6 19  1  0  0  0  0 
  7 20  1  0  0  0  0 
  7 21  1  0  0  0  0 
  9 22  1  0  0  0  0 
M  END
> <cdk:Title>
acamprosate

> <Conformer>
2

> <SuperDrugID>
SD000016

$$$$
acamprosate
  CDK     0628171801

 22 21  0  0  0  0  0  0  0  0999 V2000
   -5.2140   -2.6406   -3.1971 C   0  0  0  0  0  0  0  0  0  0  0  0
   -5.1744   -2.2373   -1.7819 C   0  0  0  0  0  0  0  0  0  0  0  0
   -6.2343   -2.2749   -1.1122 O   0  0  0  0  0  0  0  0  0  0  0  0
   -4.0045   -1.8198   -1.2322 N   0  0  0  0  0  0  0  0  0  0  0  0
   -3.8423   -1.3304    0.0995 C   0  0  2  0  0  0  0  0  0  0  0  0
   -2.3359   -1.1717    0.4148 C   0  0  2  0  0  0  0  0  0  0  0  0
   -2.0640   -0.4043    1.7303 C   0  0  2  0  0  0  0  0  0  0  0  0
   -0.2889   -0.4621    2.1704 S   0  0  2  0  0  0  0  0  0  0  0  0
    0.0844   -2.0482    2.6882 O   0  0  0  0  0  0  0  0  0  0  0  0
    0.0159    0.5531    3.3718 O   0  0  0  0  0  0  0  0  0  0  0  0
    0.6222   -0.1092    0.9003 O   0  0  0  0  0  0  0  0  0  0  0  0
   -5.9052   -1.9937   -3.7393 H   0  0  0  0  0  0  0  0  0  0  0  0
   -4.2262   -2.5598   -3.6577 H   0  0  0  0  0  0  0  0  0  0  0  0
   -5.5567   -3.6725   -3.2837 H   0  0  0  0  0  0  0  0  0  0  0  0
   -3.2186   -1.8220   -1.8017 H   0  0  0  0  0  0  0  0  0  0  0  0
   -4.2892   -2.0225    0.8185 H   0  0  0  0  0  0  0  0  0  0  0  0
   -4.3449   -0.3636    0.1854 H   0  0  0  0  0  0  0  0  0  0  0  0
   -1.8553   -0.6274   -0.4033 H   0  0  0  0  0  0  0  0  0  0  0  0
   -1.8874   -2.1669    0.4701 H   0  0  0  0  0  0  0  0  0  0  0  0
   -2.6339   -0.8393    2.5535 H   0  0  0  0  0  0  0  0  0  0  0  0
   -2.3618    0.6399    1.6130 H   0  0  0  0  0  0  0  0  0  0  0  0
   -0.7876   -2.4680    2.8453 H   0  0  0  0  0  0  0  0  0  0  0  0
  1  2  1  0  0  0  0 
  2  3  2  0  0  0  0 
  2  4  1  0  0  0  0 
  4  5  1  0  0  0  0 
  5  6  1  0  0  0  0 
  6  7  1  0  0  0  0 
  7  8  1  0  0  0  0 
  8  9  1  0  0  0  0 
  8 10  2  0  0  0  0 
  8 11  2  0  0  0  0 
  1 12  1  0  0  0  0 
  1 13  1  0  0  0  0 
  1 14  1  0  0  0  0 
  4 15  1  0  0  0  0 
  5 16  1  0  0  0  0 
  5 17  1  0  0  0  0 
  6 18  1  0  0  0  0 
  6 19  1  0  0  0  0 
  7 20  1  0  0  0  0 
  7 21  1  0  0  0  0 
  9 22  1  0  0  0  0 
M  END
> <cdk:Title>
acamprosate

> <Conformer>
3

> <SuperDrugID>
SD000016

$$$$
acamprosate
  CDK     0628171801

 22 21  0  0  0  0  0  0  0  0999 V2000
   -5.2065   -2.6371   -3.1965 C   0  0  0  0  0  0  0  0  0  0  0  0
   -5.1759   -2.2401   -1.7787 C   0  0  0  0  0  0  0  0  0  0  0  0
   -6.2377   -2.2912   -1.1125 O   0  0  0  0  0  0  0  0  0  0  0  0
   -4.0047   -1.8199   -1.2313 N   0  0  0  0  0  0  0  0  0  0  0  0
   -3.8427   -1.3307    0.0994 C   0  0  2  0  0  0  0  0  0  0  0  0
   -2.3385   -1.1593    0.4247 C   0  0  2  0  0  0  0  0  0  0  0  0
   -2.0916   -0.3463    1.7198 C   0  0  2  0  0  0  0  0  0  0  0  0
   -0.3293   -0.3621    2.2135 S   0  0  2  0  0  0  0  0  0  0  0  0
   -0.0735    0.7655    3.4752 O   0  0  0  0  0  0  0  0  0  0  0  0
    0.6116    0.0419    0.9812 O   0  0  0  0  0  0  0  0  0  0  0  0
    0.0701   -1.8147    2.7596 O   0  0  0  0  0  0  0  0  0  0  0  0
   -5.9203   -2.0130   -3.7352 H   0  0  0  0  0  0  0  0  0  0  0  0
   -4.2247   -2.5165   -3.6605 H   0  0  0  0  0  0  0  0  0  0  0  0
   -5.5091   -3.6805   -3.2881 H   0  0  0  0  0  0  0  0  0  0  0  0
   -3.2241   -1.8224   -1.8063 H   0  0  0  0  0  0  0  0  0  0  0  0
   -4.2880   -2.0262    0.8172 H   0  0  0  0  0  0  0  0  0  0  0  0
   -4.3567   -0.3689    0.1771 H   0  0  0  0  0  0  0  0  0  0  0  0
   -1.8431   -0.6420   -0.4020 H   0  0  0  0  0  0  0  0  0  0  0  0
   -1.8882   -2.1523    0.5150 H   0  0  0  0  0  0  0  0  0  0  0  0
   -2.6781   -0.7563    2.5435 H   0  0  0  0  0  0  0  0  0  0  0  0
   -2.3966    0.6883    1.5588 H   0  0  0  0  0  0  0  0  0  0  0  0
   -0.9184    1.2569    3.5496 H   0  0  0  0  0  0  0  0  0  0  0  0
  1  2  1  0  0  0  0 
  2  3  2  0  0  0  0 
  2  4  1  0  0  0  0 
  4  5  1  0  0  0  0 
  5  6  1  0  0  0  0 
  6  7  1  0  0  0  0 
  7  8  1  0  0  0  0 
  8  9  1  0  0  0  0 
  8 10  2  0  0  0  0 
  8 11  2  0  0  0  0 
  1 12  1  0  0  0  0 
  1 13  1  0  0  0  0 
  1 14  1  0  0  0  0 
  4 15  1  0  0  0  0 
  5 16  1  0  0  0  0 
  5 17  1  0  0  0  0 
  6 18  1  0  0  0  0 
  6 19  1  0  0  0  0 
  7 20  1  0  0  0  0 
  7 21  1  0  0  0  0 
  9 22  1  0  0  0  0 
M  END
> <cdk:Title>
acamprosate

> <Conformer>
4

> <SuperDrugID>
SD000016

$$$$
acamprosate
  CDK     0628171801

 22 21  0  0  0  0  0  0  0  0999 V2000
   -5.2067   -2.6603   -3.1910 C   0  0  0  0  0  0  0  0  0  0  0  0
   -5.1805   -2.2081   -1.7898 C   0  0  0  0  0  0  0  0  0  0  0  0
   -6.2525   -2.1980   -1.1409 O   0  0  0  0  0  0  0  0  0  0  0  0
   -4.0063   -1.8136   -1.2330 N   0  0  0  0  0  0  0  0  0  0  0  0
   -3.8417   -1.3242    0.0973 C   0  0  2  0  0  0  0  0  0  0  0  0
   -2.3317   -1.2090    0.4177 C   0  0  2  0  0  0  0  0  0  0  0  0
   -2.0462   -0.4209    1.7177 C   0  0  2  0  0  0  0  0  0  0  0  0
   -0.2901   -0.5649    2.2099 S   0  0  2  0  0  0  0  0  0  0  0  0
    0.7194   -0.2405    0.8676 O   0  0  0  0  0  0  0  0  0  0  0  0
   -0.0021   -2.0597    2.7103 O   0  0  0  0  0  0  0  0  0  0  0  0
    0.0476    0.4786    3.3759 O   0  0  0  0  0  0  0  0  0  0  0  0
   -5.8635   -2.0094   -3.7731 H   0  0  0  0  0  0  0  0  0  0  0  0
   -4.2067   -2.6411   -3.6344 H   0  0  0  0  0  0  0  0  0  0  0  0
   -5.5904   -3.6799   -3.2403 H   0  0  0  0  0  0  0  0  0  0  0  0
   -3.2187   -1.8440   -1.7969 H   0  0  0  0  0  0  0  0  0  0  0  0
   -4.3105   -2.0089    0.8104 H   0  0  0  0  0  0  0  0  0  0  0  0
   -4.3265   -0.3481    0.1802 H   0  0  0  0  0  0  0  0  0  0  0  0
   -1.8215   -0.7020   -0.4070 H   0  0  0  0  0  0  0  0  0  0  0  0
   -1.9208   -2.2196    0.5026 H   0  0  0  0  0  0  0  0  0  0  0  0
   -2.6601   -0.8013    2.5360 H   0  0  0  0  0  0  0  0  0  0  0  0
   -2.2838    0.6345    1.5656 H   0  0  0  0  0  0  0  0  0  0  0  0
    0.1332    0.1759    0.2027 H   0  0  0  0  0  0  0  0  0  0  0  0
  1  2  1  0  0  0  0 
  2  3  2  0  0  0  0 
  2  4  1  0  0  0  0 
  4  5  1  0  0  0  0 
  5  6  1  0  0  0  0 
  6  7  1  0  0  0  0 
  7  8  1  0  0  0  0 
  8  9  1  0  0  0  0 
  8 10  2  0  0  0  0 
  8 11  2  0  0  0  0 
  1 12  1  0  0  0  0 
  1 13  1  0  0  0  0 
  1 14  1  0  0  0  0 
  4 15  1  0  0  0  0 
  5 16  1  0  0  0  0 
  5 17  1  0  0  0  0 
  6 18  1  0  0  0  0 
  6 19  1  0  0  0  0 
  7 20  1  0  0  0  0 
  7 21  1  0  0  0  0 
  9 22  1  0  0  0  0 
M  END
> <cdk:Title>
acamprosate

> <Conformer>
5

> <SuperDrugID>
SD000016

$$$$
acamprosate
  CDK     0628171801

 22 21  0  0  0  0  0  0  0  0999 V2000
   -5.9382   -2.5652   -2.4807 C   0  0  0  0  0  0  0  0  0  0  0  0
   -4.4878   -2.2881   -2.4608 C   0  0  0  0  0  0  0  0  0  0  0  0
   -3.8141   -2.4809   -3.4993 O   0  0  0  0  0  0  0  0  0  0  0  0
   -3.8090   -1.8264   -1.3786 N   0  0  0  0  0  0  0  0  0  0  0  0
   -4.3647   -1.4864   -0.1072 C   0  0  2  0  0  0  0  0  0  0  0  0
   -3.2711   -1.5900    0.9825 C   0  0  2  0  0  0  0  0  0  0  0  0
   -3.7533   -1.0909    2.3666 C   0  0  2  0  0  0  0  0  0  0  0  0
   -2.4763   -1.3541    3.6504 S   0  0  2  0  0  0  0  0  0  0  0  0
   -2.2335   -3.0335    3.8575 O   0  0  0  0  0  0  0  0  0  0  0  0
   -2.9638   -0.7313    5.0435 O   0  0  0  0  0  0  0  0  0  0  0  0
   -1.0899   -0.6853    3.2058 O   0  0  0  0  0  0  0  0  0  0  0  0
   -6.2648   -2.8850   -3.4730 H   0  0  0  0  0  0  0  0  0  0  0  0
   -6.1665   -3.3614   -1.7698 H   0  0  0  0  0  0  0  0  0  0  0  0
   -6.4906   -1.6652   -2.2038 H   0  0  0  0  0  0  0  0  0  0  0  0
   -2.8542   -1.6841   -1.4861 H   0  0  0  0  0  0  0  0  0  0  0  0
   -5.1862   -2.1543    0.1644 H   0  0  0  0  0  0  0  0  0  0  0  0
   -4.7465   -0.4635   -0.1628 H   0  0  0  0  0  0  0  0  0  0  0  0
   -2.4021   -1.0006    0.6769 H   0  0  0  0  0  0  0  0  0  0  0  0
   -2.9622   -2.6372    1.0669 H   0  0  0  0  0  0  0  0  0  0  0  0
   -4.6593   -1.6243    2.6672 H   0  0  0  0  0  0  0  0  0  0  0  0
   -3.9772   -0.0237    2.3148 H   0  0  0  0  0  0  0  0  0  0  0  0
   -2.9496   -3.4546    3.3381 H   0  0  0  0  0  0  0  0  0  0  0  0
  1  2  1  0  0  0  0 
  2  3  2  0  0  0  0 
  2  4  1  0  0  0  0 
  4  5  1  0  0  0  0 
  5  6  1  0  0  0  0 
  6  7  1  0  0  0  0 
  7  8  1  0  0  0  0 
  8  9  1  0  0  0  0 
  8 10  2  0  0  0  0 
  8 11  2  0  0  0  0 
  1 12  1  0  0  0  0 
  1 13  1  0  0  0  0 
  1 14  1  0  0  0  0 
  4 15  1  0  0  0  0 
  5 16  1  0  0  0  0 
  5 17  1  0  0  0  0 
  6 18  1  0  0  0  0 
  6 19  1  0  0  0  0 
  7 20  1  0  0  0  0 
  7 21  1  0  0  0  0 
  9 22  1  0  0  0  0 
M  END
> <cdk:Title>
acamprosate

> <Conformer>
6

> <SuperDrugID>
SD000016

$$$$
acamprosate
  CDK     0628171801

 22 21  0  0  0  0  0  0  0  0999 V2000
   -5.9403   -2.5459   -2.4858 C   0  0  0  0  0  0  0  0  0  0  0  0
   -4.4847   -2.3101   -2.4524 C   0  0  0  0  0  0  0  0  0  0  0  0
   -3.8119   -2.5540   -3.4800 O   0  0  0  0  0  0  0  0  0  0  0  0
   -3.8074   -1.8310   -1.3763 N   0  0  0  0  0  0  0  0  0  0  0  0
   -4.3688   -1.4707   -0.1122 C   0  0  2  0  0  0  0  0  0  0  0  0
   -3.2896   -1.5872    0.9890 C   0  0  2  0  0  0  0  0  0  0  0  0
   -3.7742   -1.0471    2.3543 C   0  0  2  0  0  0  0  0  0  0  0  0
   -2.5325   -1.3287    3.6661 S   0  0  2  0  0  0  0  0  0  0  0  0
   -3.1003   -0.5985    5.1022 O   0  0  0  0  0  0  0  0  0  0  0  0
   -1.1298   -0.6619    3.2722 O   0  0  0  0  0  0  0  0  0  0  0  0
   -2.3541   -2.8978    3.9300 O   0  0  0  0  0  0  0  0  0  0  0  0
   -6.2699   -2.8446   -3.4824 H   0  0  0  0  0  0  0  0  0  0  0  0
   -6.2018   -3.3392   -1.7844 H   0  0  0  0  0  0  0  0  0  0  0  0
   -6.4663   -1.6326   -2.2072 H   0  0  0  0  0  0  0  0  0  0  0  0
   -2.8526   -1.6926   -1.4868 H   0  0  0  0  0  0  0  0  0  0  0  0
   -5.2065   -2.1236    0.1495 H   0  0  0  0  0  0  0  0  0  0  0  0
   -4.7329   -0.4422   -0.1739 H   0  0  0  0  0  0  0  0  0  0  0  0
   -2.3984   -1.0269    0.6923 H   0  0  0  0  0  0  0  0  0  0  0  0
   -3.0118   -2.6406    1.0926 H   0  0  0  0  0  0  0  0  0  0  0  0
   -4.7008   -1.5413    2.6497 H   0  0  0  0  0  0  0  0  0  0  0  0
   -3.9587    0.0261    2.2837 H   0  0  0  0  0  0  0  0  0  0  0  0
   -3.9406   -0.1716    4.8373 H   0  0  0  0  0  0  0  0  0  0  0  0
  1  2  1  0  0  0  0 
  2  3  2  0  0  0  0 
  2  4  1  0  0  0  0 
  4  5  1  0  0  0  0 
  5  6  1  0  0  0  0 
  6  7  1  0  0  0  0 
  7  8  1  0  0  0  0 
  8  9  1  0  0  0  0 
  8 10  2  0  0  0  0 
  8 11  2  0  0  0  0 
  1 12  1  0  0  0  0 
  1 13  1  0  0  0  0 
  1 14  1  0  0  0  0 
  4 15  1  0  0  0  0 
  5 16  1  0  0  0  0 
  5 17  1  0  0  0  0 
  6 18  1  0  0  0  0 
  6 19  1  0  0  0  0 
  7 20  1  0  0  0  0 
  7 21  1  0  0  0  0 
  9 22  1  0  0  0  0 
M  END
> <cdk:Title>
acamprosate

> <Conformer>
7

> <SuperDrugID>
SD000016

$$$$
acamprosate
  CDK     0628171801

 22 21  0  0  0  0  0  0  0  0999 V2000
   -5.9376   -2.5638   -2.4827 C   0  0  0  0  0  0  0  0  0  0  0  0
   -4.4871   -2.2909   -2.4604 C   0  0  0  0  0  0  0  0  0  0  0  0
   -3.8103   -2.4859   -3.4964 O   0  0  0  0  0  0  0  0  0  0  0  0
   -3.8104   -1.8256   -1.3771 N   0  0  0  0  0  0  0  0  0  0  0  0
   -4.3632   -1.4832   -0.1042 C   0  0  2  0  0  0  0  0  0  0  0  0
   -3.2636   -1.5969    0.9794 C   0  0  2  0  0  0  0  0  0  0  0  0
   -3.7251   -1.0746    2.3603 C   0  0  2  0  0  0  0  0  0  0  0  0
   -2.4667   -1.3659    3.6574 S   0  0  2  0  0  0  0  0  0  0  0  0
   -0.9833   -0.6491    3.2011 O   0  0  0  0  0  0  0  0  0  0  0  0
   -2.2294   -2.9378    3.8560 O   0  0  0  0  0  0  0  0  0  0  0  0
   -2.9458   -0.7098    5.0382 O   0  0  0  0  0  0  0  0  0  0  0  0
   -6.2586   -2.8705   -3.4790 H   0  0  0  0  0  0  0  0  0  0  0  0
   -6.1784   -3.3637   -1.7810 H   0  0  0  0  0  0  0  0  0  0  0  0
   -6.4880   -1.6650   -2.2018 H   0  0  0  0  0  0  0  0  0  0  0  0
   -2.8556   -1.6868   -1.4891 H   0  0  0  0  0  0  0  0  0  0  0  0
   -5.1953   -2.1422    0.1608 H   0  0  0  0  0  0  0  0  0  0  0  0
   -4.7346   -0.4566   -0.1579 H   0  0  0  0  0  0  0  0  0  0  0  0
   -2.3880   -1.0224    0.6647 H   0  0  0  0  0  0  0  0  0  0  0  0
   -2.9723   -2.6478    1.0643 H   0  0  0  0  0  0  0  0  0  0  0  0
   -4.6459   -1.5791    2.6612 H   0  0  0  0  0  0  0  0  0  0  0  0
   -3.9191   -0.0008    2.3005 H   0  0  0  0  0  0  0  0  0  0  0  0
   -1.1875   -0.1477    2.3848 H   0  0  0  0  0  0  0  0  0  0  0  0
  1  2  1  0  0  0  0 
  2  3  2  0  0  0  0 
  2  4  1  0  0  0  0 
  4  5  1  0  0  0  0 
  5  6  1  0  0  0  0 
  6  7  1  0  0  0  0 
  7  8  1  0  0  0  0 
  8  9  1  0  0  0  0 
  8 10  2  0  0  0  0 
  8 11  2  0  0  0  0 
  1 12  1  0  0  0  0 
  1 13  1  0  0  0  0 
  1 14  1  0  0  0  0 
  4 15  1  0  0  0  0 
  5 16  1  0  0  0  0 
  5 17  1  0  0  0  0 
  6 18  1  0  0  0  0 
  6 19  1  0  0  0  0 
  7 20  1  0  0  0  0 
  7 21  1  0  0  0  0 
  9 22  1  0  0  0  0 
M  END
> <cdk:Title>
acamprosate

> <Conformer>
8

> <SuperDrugID>
SD000016

$$$$
acamprosate
  CDK     0628171801

 22 21  0  0  0  0  0  0  0  0999 V2000
   -5.9434   -2.5651   -2.5264 C   0  0  0  0  0  0  0  0  0  0  0  0
   -4.4924   -2.3037   -2.4427 C   0  0  0  0  0  0  0  0  0  0  0  0
   -3.7998   -2.5609   -3.4531 O   0  0  0  0  0  0  0  0  0  0  0  0
   -3.8122   -1.8205   -1.3670 N   0  0  0  0  0  0  0  0  0  0  0  0
   -4.3479   -1.4683   -0.0924 C   0  0  2  0  0  0  0  0  0  0  0  0
   -3.1853   -1.2573    0.9098 C   0  0  2  0  0  0  0  0  0  0  0  0
   -3.6614   -0.8015    2.3099 C   0  0  2  0  0  0  0  0  0  0  0  0
   -2.3177   -0.8676    3.5536 S   0  0  2  0  0  0  0  0  0  0  0  0
   -0.9568    0.0181    3.0176 O   0  0  0  0  0  0  0  0  0  0  0  0
   -1.8659   -2.3849    3.8041 O   0  0  0  0  0  0  0  0  0  0  0  0
   -2.8271   -0.2272    4.9315 O   0  0  0  0  0  0  0  0  0  0  0  0
   -6.4790   -2.2365   -1.6377 H   0  0  0  0  0  0  0  0  0  0  0  0
   -6.3554   -2.0373   -3.3867 H   0  0  0  0  0  0  0  0  0  0  0  0
   -6.1129   -3.6360   -2.6559 H   0  0  0  0  0  0  0  0  0  0  0  0
   -2.8579   -1.6926   -1.4850 H   0  0  0  0  0  0  0  0  0  0  0  0
   -4.9890   -2.2738    0.2758 H   0  0  0  0  0  0  0  0  0  0  0  0
   -4.9326   -0.5509   -0.1884 H   0  0  0  0  0  0  0  0  0  0  0  0
   -2.4935   -0.5103    0.5079 H   0  0  0  0  0  0  0  0  0  0  0  0
   -2.6421   -2.2023    1.0055 H   0  0  0  0  0  0  0  0  0  0  0  0
   -4.4679   -1.4473    2.6605 H   0  0  0  0  0  0  0  0  0  0  0  0
   -4.0378    0.2211    2.2546 H   0  0  0  0  0  0  0  0  0  0  0  0
   -1.2589    0.4910    2.2148 H   0  0  0  0  0  0  0  0  0  0  0  0
  1  2  1  0  0  0  0 
  2  3  2  0  0  0  0 
  2  4  1  0  0  0  0 
  4  5  1  0  0  0  0 
  5  6  1  0  0  0  0 
  6  7  1  0  0  0  0 
  7  8  1  0  0  0  0 
  8  9  1  0  0  0  0 
  8 10  2  0  0  0  0 
  8 11  2  0  0  0  0 
  1 12  1  0  0  0  0 
  1 13  1  0  0  0  0 
  1 14  1  0  0  0  0 
  4 15  1  0  0  0  0 
  5 16  1  0  0  0  0 
  5 17  1  0  0  0  0 
  6 18  1  0  0  0  0 
  6 19  1  0  0  0  0 
  7 20  1  0  0  0  0 
  7 21  1  0  0  0  0 
  9 22  1  0  0  0  0 
M  END
> <cdk:Title>
acamprosate

> <Conformer>
9

> <SuperDrugID>
SD000016

$$$$
acamprosate
  CDK     0628171801

 22 21  0  0  0  0  0  0  0  0999 V2000
   -5.9430   -2.5758   -2.5302 C   0  0  0  0  0  0  0  0  0  0  0  0
   -4.4956   -2.2924   -2.4471 C   0  0  0  0  0  0  0  0  0  0  0  0
   -3.8080   -2.4973   -3.4726 O   0  0  0  0  0  0  0  0  0  0  0  0
   -3.8132   -1.8249   -1.3638 N   0  0  0  0  0  0  0  0  0  0  0  0
   -4.3429   -1.4699   -0.0840 C   0  0  2  0  0  0  0  0  0  0  0  0
   -3.1850   -1.3375    0.9387 C   0  0  2  0  0  0  0  0  0  0  0  0
   -3.6455   -0.8673    2.3412 C   0  0  2  0  0  0  0  0  0  0  0  0
   -2.2956   -1.0080    3.5711 S   0  0  2  0  0  0  0  0  0  0  0  0
   -2.8043   -0.3589    5.0685 O   0  0  0  0  0  0  0  0  0  0  0  0
   -1.0006   -0.2009    3.0842 O   0  0  0  0  0  0  0  0  0  0  0  0
   -1.9270   -2.5513    3.7979 O   0  0  0  0  0  0  0  0  0  0  0  0
   -6.4700   -2.3411   -1.6074 H   0  0  0  0  0  0  0  0  0  0  0  0
   -6.3772   -1.9816   -3.3357 H   0  0  0  0  0  0  0  0  0  0  0  0
   -6.0924   -3.6327   -2.7579 H   0  0  0  0  0  0  0  0  0  0  0  0
   -2.8591   -1.6872   -1.4884 H   0  0  0  0  0  0  0  0  0  0  0  0
   -5.0391   -2.2348    0.2710 H   0  0  0  0  0  0  0  0  0  0  0  0
   -4.8742   -0.5187   -0.1720 H   0  0  0  0  0  0  0  0  0  0  0  0
   -2.4527   -0.6194    0.5581 H   0  0  0  0  0  0  0  0  0  0  0  0
   -2.6945   -2.3117    1.0247 H   0  0  0  0  0  0  0  0  0  0  0  0
   -4.4842   -1.4738    2.6870 H   0  0  0  0  0  0  0  0  0  0  0  0
   -3.9666    0.1764    2.2909 H   0  0  0  0  0  0  0  0  0  0  0  0
   -3.7033   -0.0075    4.9001 H   0  0  0  0  0  0  0  0  0  0  0  0
  1  2  1  0  0  0  0 
  2  3  2  0  0  0  0 
  2  4  1  0  0  0  0 
  4  5  1  0  0  0  0 
  5  6  1  0  0  0  0 
  6  7  1  0  0  0  0 
  7  8  1  0  0  0  0 
  8  9  1  0  0  0  0 
  8 10  2  0  0  0  0 
  8 11  2  0  0  0  0 
  1 12  1  0  0  0  0 
  1 13  1  0  0  0  0 
  1 14  1  0  0  0  0 
  4 15  1  0  0  0  0 
  5 16  1  0  0  0  0 
  5 17  1  0  0  0  0 
  6 18  1  0  0  0  0 
  6 19  1  0  0  0  0 
  7 20  1  0  0  0  0 
  7 21  1  0  0  0  0 
  9 22  1  0  0  0  0 
M  END
> <cdk:Title>
acamprosate

> <Conformer>
10

> <SuperDrugID>
SD000016

$$$$
