(S)-nicardipine
  CDK     0628171802

 64 66  0  0  0  0  0  0  0  0999 V2000
   -0.5501    1.7013   -4.7634 C   0  0  0  0  0  0  0  0  0  0  0  0
   -0.0772    0.6661   -4.0013 O   0  0  0  0  0  0  0  0  0  0  0  0
   -1.7008    1.5646   -5.2470 O   0  0  0  0  0  0  0  0  0  0  0  0
    0.1679    2.8962   -4.9864 C   0  0  0  0  0  0  0  0  0  0  0  0
   -0.7643   -0.5595   -3.7012 C   0  0  1  0  0  0  0  0  0  0  0  0
   -0.5815    4.0818   -5.4889 C   0  0  2  0  0  0  0  0  0  0  0  0
    1.4959    3.0473   -4.7493 C   0  0  0  0  0  0  0  0  0  0  0  0
    0.1010   -1.4420   -2.7703 C   0  0  1  0  0  0  0  0  0  0  0  0
    0.2167    5.2664   -5.9042 C   0  0  0  0  0  0  0  0  0  0  0  0
   -1.5699    4.5317   -4.4454 C   0  0  0  0  0  0  0  0  0  0  0  0
    2.3983    1.9747   -4.2119 C   0  0  0  0  0  0  0  0  0  0  0  0
    2.0962    4.2196   -5.0002 N   0  0  0  0  0  0  0  0  0  0  0  0
   -0.3973   -2.8554   -2.6589 N   0  0  2  0  0  0  0  0  0  0  0  0
   -0.4416    6.3099   -6.5856 C   0  0  0  0  0  0  0  0  0  0  0  0
    1.5409    5.2811   -5.6016 C   0  0  0  0  0  0  0  0  0  0  0  0
   -2.9517    4.6321   -4.7392 C   0  0  0  0  0  0  0  0  0  0  0  0
   -1.1348    4.8816   -3.1454 C   0  0  0  0  0  0  0  0  0  0  0  0
   -1.6361   -2.9935   -1.8217 C   0  0  2  0  0  0  0  0  0  0  0  0
    0.6865   -3.8024   -2.2474 C   0  0  0  0  0  0  0  0  0  0  0  0
   -0.0230    7.6096   -6.5233 O   0  0  0  0  0  0  0  0  0  0  0  0
   -1.4656    6.0656   -7.2686 O   0  0  0  0  0  0  0  0  0  0  0  0
    2.4603    6.3760   -5.8891 C   0  0  0  0  0  0  0  0  0  0  0  0
   -3.9011    5.0680   -3.7787 C   0  0  0  0  0  0  0  0  0  0  0  0
   -2.0544    5.2777   -2.1643 C   0  0  0  0  0  0  0  0  0  0  0  0
   -2.3158   -4.3100   -1.9749 C   0  0  0  0  0  0  0  0  0  0  0  0
   -0.5954    8.7311   -7.2049 C   0  0  0  0  0  0  0  0  0  0  0  0
   -5.2030    5.2017   -4.0982 N   0  0  0  0  0  0  0  0  0  0  0  0
   -3.4215    5.3659   -2.4768 C   0  0  0  0  0  0  0  0  0  0  0  0
   -2.8595   -4.6946   -3.2234 C   0  0  0  0  0  0  0  0  0  0  0  0
   -2.4382   -5.2033   -0.8837 C   0  0  0  0  0  0  0  0  0  0  0  0
   -6.0304    5.4454   -3.3094 O   0  0  0  0  0  0  0  0  0  0  0  0
   -5.6319    5.0880   -5.2912 O   0  0  0  0  0  0  0  0  0  0  0  0
   -3.4957   -5.9411   -3.3787 C   0  0  0  0  0  0  0  0  0  0  0  0
   -3.0731   -6.4490   -1.0376 C   0  0  0  0  0  0  0  0  0  0  0  0
   -3.6066   -6.8158   -2.2840 C   0  0  0  0  0  0  0  0  0  0  0  0
   -1.7076   -0.3112   -3.2114 H   0  0  0  0  0  0  0  0  0  0  0  0
   -0.9754   -1.0921   -4.6333 H   0  0  0  0  0  0  0  0  0  0  0  0
   -1.0970    3.7356   -6.3955 H   0  0  0  0  0  0  0  0  0  0  0  0
    1.1113   -1.4349   -3.1906 H   0  0  0  0  0  0  0  0  0  0  0  0
    0.1553   -0.9724   -1.7822 H   0  0  0  0  0  0  0  0  0  0  0  0
    2.4453    0.9682   -4.7293 H   0  0  0  0  0  0  0  0  0  0  0  0
    3.4316    2.3270   -4.1756 H   0  0  0  0  0  0  0  0  0  0  0  0
    2.1098    1.7924   -3.1756 H   0  0  0  0  0  0  0  0  0  0  0  0
    3.0279    4.2999   -4.7374 H   0  0  0  0  0  0  0  0  0  0  0  0
   -3.2690    4.3857   -5.6794 H   0  0  0  0  0  0  0  0  0  0  0  0
   -0.1407    4.8470   -2.9035 H   0  0  0  0  0  0  0  0  0  0  0  0
   -2.3744   -2.2406   -2.1038 H   0  0  0  0  0  0  0  0  0  0  0  0
   -1.3859   -2.8033   -0.7732 H   0  0  0  0  0  0  0  0  0  0  0  0
    1.5238   -3.7496   -2.9457 H   0  0  0  0  0  0  0  0  0  0  0  0
    0.3389   -4.8371   -2.2566 H   0  0  0  0  0  0  0  0  0  0  0  0
    1.0548   -3.5699   -1.2453 H   0  0  0  0  0  0  0  0  0  0  0  0
    3.5004    6.1145   -5.6774 H   0  0  0  0  0  0  0  0  0  0  0  0
    2.4046    6.6534   -6.9429 H   0  0  0  0  0  0  0  0  0  0  0  0
    2.2087    7.2385   -5.2702 H   0  0  0  0  0  0  0  0  0  0  0  0
   -1.7274    5.5118   -1.2242 H   0  0  0  0  0  0  0  0  0  0  0  0
   -0.5380    8.5884   -8.2857 H   0  0  0  0  0  0  0  0  0  0  0  0
   -0.0404    9.6315   -6.9394 H   0  0  0  0  0  0  0  0  0  0  0  0
   -1.6385    8.8565   -6.9107 H   0  0  0  0  0  0  0  0  0  0  0  0
   -4.0655    5.6644   -1.7399 H   0  0  0  0  0  0  0  0  0  0  0  0
   -2.7961   -4.0674   -4.0286 H   0  0  0  0  0  0  0  0  0  0  0  0
   -2.0687   -4.9531    0.0348 H   0  0  0  0  0  0  0  0  0  0  0  0
   -3.8790   -6.2124   -4.2871 H   0  0  0  0  0  0  0  0  0  0  0  0
   -3.1545   -7.0860   -0.2429 H   0  0  0  0  0  0  0  0  0  0  0  0
   -4.0796   -7.7141   -2.3931 H   0  0  0  0  0  0  0  0  0  0  0  0
  1  2  1  0  0  0  0 
  1  3  2  0  0  0  0 
  1  4  1  0  0  0  0 
  2  5  1  0  0  0  0 
  6  4  1  0  0  0  0 
  4  7  2  0  0  0  0 
  5  8  1  0  0  0  0 
  6  9  1  0  0  0  0 
  6 10  1  0  0  0  0 
  7 11  1  0  0  0  0 
  7 12  1  0  0  0  0 
  8 13  1  0  0  0  0 
  9 14  1  0  0  0  0 
  9 15  2  0  0  0  0 
 10 16  2  0  0  0  0 
 10 17  1  0  0  0  0 
 12 15  1  0  0  0  0 
 13 18  1  0  0  0  0 
 13 19  1  0  0  0  0 
 14 20  1  0  0  0  0 
 14 21  2  0  0  0  0 
 15 22  1  0  0  0  0 
 16 23  1  0  0  0  0 
 17 24  2  0  0  0  0 
 18 25  1  0  0  0  0 
 20 26  1  0  0  0  0 
 23 27  1  0  0  0  0 
 23 28  2  0  0  0  0 
 24 28  1  0  0  0  0 
 25 29  2  0  0  0  0 
 25 30  1  0  0  0  0 
 27 31  2  0  0  0  0 
 27 32  1  0  0  0  0 
 29 33  1  0  0  0  0 
 30 34  2  0  0  0  0 
 33 35  2  0  0  0  0 
 34 35  1  0  0  0  0 
 36  5  1  0  0  0  0 
 37  5  1  0  0  0  0 
  6 38  1  0  0  0  0 
 39  8  1  0  0  0  0 
 40  8  1  0  0  0  0 
 41 11  1  0  0  0  0 
 42 11  1  0  0  0  0 
 43 11  1  0  0  0  0 
 44 12  1  0  0  0  0 
 45 16  1  0  0  0  0 
 46 17  1  0  0  0  0 
 47 18  1  0  0  0  0 
 48 18  1  0  0  0  0 
 49 19  1  0  0  0  0 
 50 19  1  0  0  0  0 
 51 19  1  0  0  0  0 
 52 22  1  0  0  0  0 
 53 22  1  0  0  0  0 
 54 22  1  0  0  0  0 
 55 24  1  0  0  0  0 
 56 26  1  0  0  0  0 
 57 26  1  0  0  0  0 
 58 26  1  0  0  0  0 
 59 28  1  0  0  0  0 
 60 29  1  0  0  0  0 
 61 30  1  0  0  0  0 
 62 33  1  0  0  0  0 
 63 34  1  0  0  0  0 
 64 35  1  0  0  0  0 
M  CHG  1  27   1
M  CHG  1  32  -1
M  END
> <cdk:Title>
(S)-nicardipine

> <Conformer>
1

> <SuperDrugID>
SD000002

$$$$
(S)-nicardipine
  CDK     0628171802

 64 66  0  0  0  0  0  0  0  0999 V2000
   -0.7969    1.6495   -4.7153 C   0  0  0  0  0  0  0  0  0  0  0  0
   -0.2897    0.5998   -3.9944 O   0  0  0  0  0  0  0  0  0  0  0  0
   -1.9552    1.5085   -5.1797 O   0  0  0  0  0  0  0  0  0  0  0  0
   -0.0985    2.8638   -4.9042 C   0  0  0  0  0  0  0  0  0  0  0  0
   -0.9345   -0.6476   -3.6942 C   0  0  1  0  0  0  0  0  0  0  0  0
   -0.8805    4.0753   -5.2873 C   0  0  2  0  0  0  0  0  0  0  0  0
    1.2402    3.0073   -4.7238 C   0  0  0  0  0  0  0  0  0  0  0  0
   -0.0122   -1.5387   -2.8263 C   0  0  1  0  0  0  0  0  0  0  0  0
   -0.1159    5.2957   -5.6587 C   0  0  0  0  0  0  0  0  0  0  0  0
   -1.8259    4.4159   -4.1662 C   0  0  0  0  0  0  0  0  0  0  0  0
    2.1746    1.9103   -4.2973 C   0  0  0  0  0  0  0  0  0  0  0  0
    1.8186    4.1976   -4.9383 N   0  0  0  0  0  0  0  0  0  0  0  0
   -0.4982   -2.9575   -2.7270 N   0  0  2  0  0  0  0  0  0  0  0  0
   -0.8177    6.3793   -6.2263 C   0  0  0  0  0  0  0  0  0  0  0  0
    1.2246    5.2928   -5.4363 C   0  0  0  0  0  0  0  0  0  0  0  0
   -1.3377    4.6749   -2.8604 C   0  0  0  0  0  0  0  0  0  0  0  0
   -3.2221    4.4564   -4.3776 C   0  0  0  0  0  0  0  0  0  0  0  0
   -1.6659   -3.1281   -1.7960 C   0  0  2  0  0  0  0  0  0  0  0  0
    0.6154   -3.9209   -2.4601 C   0  0  0  0  0  0  0  0  0  0  0  0
   -0.3627    7.6672   -6.1576 O   0  0  0  0  0  0  0  0  0  0  0  0
   -1.9127    6.1854   -6.8104 O   0  0  0  0  0  0  0  0  0  0  0  0
    2.1308    6.4046   -5.7040 C   0  0  0  0  0  0  0  0  0  0  0  0
   -2.2011    4.9042   -1.7584 C   0  0  0  0  0  0  0  0  0  0  0  0
   -4.0981    4.7407   -3.3190 C   0  0  0  0  0  0  0  0  0  0  0  0
   -2.3648   -4.4339   -1.9649 C   0  0  0  0  0  0  0  0  0  0  0  0
   -0.9643    8.8176   -6.7604 C   0  0  0  0  0  0  0  0  0  0  0  0
   -1.7128    5.0532   -0.5120 N   0  0  0  0  0  0  0  0  0  0  0  0
   -3.5935    4.9543   -2.0250 C   0  0  0  0  0  0  0  0  0  0  0  0
   -2.9704   -4.7636   -3.2017 C   0  0  0  0  0  0  0  0  0  0  0  0
   -2.4331   -5.3750   -0.9104 C   0  0  0  0  0  0  0  0  0  0  0  0
   -2.3847    5.3145    0.4081 O   0  0  0  0  0  0  0  0  0  0  0  0
   -0.4802    4.9004   -0.2336 O   0  0  0  0  0  0  0  0  0  0  0  0
   -3.6120   -6.0045   -3.3841 C   0  0  0  0  0  0  0  0  0  0  0  0
   -3.0771   -6.6143   -1.0893 C   0  0  0  0  0  0  0  0  0  0  0  0
   -3.6677   -6.9285   -2.3258 C   0  0  0  0  0  0  0  0  0  0  0  0
   -1.8581   -0.4308   -3.1553 H   0  0  0  0  0  0  0  0  0  0  0  0
   -1.1803   -1.1635   -4.6251 H   0  0  0  0  0  0  0  0  0  0  0  0
   -1.4349    3.7884   -6.1888 H   0  0  0  0  0  0  0  0  0  0  0  0
    0.9811   -1.5069   -3.2851 H   0  0  0  0  0  0  0  0  0  0  0  0
    0.0806   -1.0957   -1.8304 H   0  0  0  0  0  0  0  0  0  0  0  0
    2.1997    0.9309   -4.8692 H   0  0  0  0  0  0  0  0  0  0  0  0
    3.2053    2.2738   -4.2931 H   0  0  0  0  0  0  0  0  0  0  0  0
    1.9422    1.6747   -3.2567 H   0  0  0  0  0  0  0  0  0  0  0  0
    2.7660    4.2691   -4.7368 H   0  0  0  0  0  0  0  0  0  0  0  0
   -0.3256    4.6770   -2.7114 H   0  0  0  0  0  0  0  0  0  0  0  0
   -3.6132    4.2784   -5.3061 H   0  0  0  0  0  0  0  0  0  0  0  0
   -2.4176   -2.3597   -1.9819 H   0  0  0  0  0  0  0  0  0  0  0  0
   -1.3296   -2.9887   -0.7626 H   0  0  0  0  0  0  0  0  0  0  0  0
    1.3676   -3.8496   -3.2473 H   0  0  0  0  0  0  0  0  0  0  0  0
    0.2587   -4.9517   -2.4651 H   0  0  0  0  0  0  0  0  0  0  0  0
    1.0897   -3.7177   -1.4960 H   0  0  0  0  0  0  0  0  0  0  0  0
    3.1804    6.1314   -5.5630 H   0  0  0  0  0  0  0  0  0  0  0  0
    2.0205    6.7455   -6.7347 H   0  0  0  0  0  0  0  0  0  0  0  0
    1.9154    7.2283   -5.0210 H   0  0  0  0  0  0  0  0  0  0  0  0
   -5.1052    4.7850   -3.4893 H   0  0  0  0  0  0  0  0  0  0  0  0
   -0.9621    8.7129   -7.8463 H   0  0  0  0  0  0  0  0  0  0  0  0
   -0.3868    9.7008   -6.4923 H   0  0  0  0  0  0  0  0  0  0  0  0
   -1.9903    8.9447   -6.4106 H   0  0  0  0  0  0  0  0  0  0  0  0
   -4.2585    5.1447   -1.2729 H   0  0  0  0  0  0  0  0  0  0  0  0
   -2.9459   -4.1024   -3.9827 H   0  0  0  0  0  0  0  0  0  0  0  0
   -2.0107   -5.1702   -0.0035 H   0  0  0  0  0  0  0  0  0  0  0  0
   -4.0368   -6.2359   -4.2863 H   0  0  0  0  0  0  0  0  0  0  0  0
   -3.1184   -7.2874   -0.3208 H   0  0  0  0  0  0  0  0  0  0  0  0
   -4.1388   -7.8271   -2.4550 H   0  0  0  0  0  0  0  0  0  0  0  0
  1  2  1  0  0  0  0 
  1  3  2  0  0  0  0 
  1  4  1  0  0  0  0 
  2  5  1  0  0  0  0 
  6  4  1  0  0  0  0 
  4  7  2  0  0  0  0 
  5  8  1  0  0  0  0 
  6  9  1  0  0  0  0 
  6 10  1  0  0  0  0 
  7 11  1  0  0  0  0 
  7 12  1  0  0  0  0 
  8 13  1  0  0  0  0 
  9 14  1  0  0  0  0 
  9 15  2  0  0  0  0 
 10 16  2  0  0  0  0 
 10 17  1  0  0  0  0 
 12 15  1  0  0  0  0 
 13 18  1  0  0  0  0 
 13 19  1  0  0  0  0 
 14 20  1  0  0  0  0 
 14 21  2  0  0  0  0 
 15 22  1  0  0  0  0 
 16 23  1  0  0  0  0 
 17 24  2  0  0  0  0 
 18 25  1  0  0  0  0 
 20 26  1  0  0  0  0 
 23 27  1  0  0  0  0 
 23 28  2  0  0  0  0 
 24 28  1  0  0  0  0 
 25 29  2  0  0  0  0 
 25 30  1  0  0  0  0 
 27 31  2  0  0  0  0 
 27 32  1  0  0  0  0 
 29 33  1  0  0  0  0 
 30 34  2  0  0  0  0 
 33 35  2  0  0  0  0 
 34 35  1  0  0  0  0 
 36  5  1  0  0  0  0 
 37  5  1  0  0  0  0 
  6 38  1  0  0  0  0 
 39  8  1  0  0  0  0 
 40  8  1  0  0  0  0 
 41 11  1  0  0  0  0 
 42 11  1  0  0  0  0 
 43 11  1  0  0  0  0 
 44 12  1  0  0  0  0 
 45 16  1  0  0  0  0 
 46 17  1  0  0  0  0 
 47 18  1  0  0  0  0 
 48 18  1  0  0  0  0 
 49 19  1  0  0  0  0 
 50 19  1  0  0  0  0 
 51 19  1  0  0  0  0 
 52 22  1  0  0  0  0 
 53 22  1  0  0  0  0 
 54 22  1  0  0  0  0 
 55 24  1  0  0  0  0 
 56 26  1  0  0  0  0 
 57 26  1  0  0  0  0 
 58 26  1  0  0  0  0 
 59 28  1  0  0  0  0 
 60 29  1  0  0  0  0 
 61 30  1  0  0  0  0 
 62 33  1  0  0  0  0 
 63 34  1  0  0  0  0 
 64 35  1  0  0  0  0 
M  CHG  1  27   1
M  CHG  1  32  -1
M  END
> <cdk:Title>
(S)-nicardipine

> <Conformer>
2

> <SuperDrugID>
SD000002

$$$$
(S)-nicardipine
  CDK     0628171802

 64 66  0  0  0  0  0  0  0  0999 V2000
   -0.6584    1.7695   -4.7092 C   0  0  0  0  0  0  0  0  0  0  0  0
   -0.1771    0.7323   -3.9507 O   0  0  0  0  0  0  0  0  0  0  0  0
   -1.7977    1.6181   -5.2157 O   0  0  0  0  0  0  0  0  0  0  0  0
    0.0384    2.9857   -4.8966 C   0  0  0  0  0  0  0  0  0  0  0  0
   -0.8385   -0.5133   -3.6666 C   0  0  1  0  0  0  0  0  0  0  0  0
   -0.7407    4.1908   -5.3009 C   0  0  2  0  0  0  0  0  0  0  0  0
    1.3734    3.1375   -4.6975 C   0  0  0  0  0  0  0  0  0  0  0  0
    0.0659   -1.4265   -2.8005 C   0  0  1  0  0  0  0  0  0  0  0  0
    0.0266    5.4105   -5.6702 C   0  0  0  0  0  0  0  0  0  0  0  0
   -1.7065    4.5307   -4.1986 C   0  0  0  0  0  0  0  0  0  0  0  0
    2.3059    2.0444   -4.2572 C   0  0  0  0  0  0  0  0  0  0  0  0
    1.9527    4.3277   -4.9095 N   0  0  0  0  0  0  0  0  0  0  0  0
   -0.4240   -2.8465   -2.7076 N   0  0  2  0  0  0  0  0  0  0  0  0
   -0.6681    6.4892   -6.2629 C   0  0  0  0  0  0  0  0  0  0  0  0
    1.3641    5.4147   -5.4277 C   0  0  0  0  0  0  0  0  0  0  0  0
   -1.2483    4.7846   -2.8810 C   0  0  0  0  0  0  0  0  0  0  0  0
   -3.0970    4.5765   -4.4413 C   0  0  0  0  0  0  0  0  0  0  0  0
   -1.6046   -3.0182   -1.7955 C   0  0  2  0  0  0  0  0  0  0  0  0
    0.6847   -3.8004   -2.3846 C   0  0  0  0  0  0  0  0  0  0  0  0
   -0.2183    7.7822   -6.2027 O   0  0  0  0  0  0  0  0  0  0  0  0
   -1.7505    6.2850   -6.8674 O   0  0  0  0  0  0  0  0  0  0  0  0
    2.2681    6.5252   -5.7072 C   0  0  0  0  0  0  0  0  0  0  0  0
   -2.1369    5.0160   -1.7989 C   0  0  0  0  0  0  0  0  0  0  0  0
   -3.9964    4.8564   -3.4016 C   0  0  0  0  0  0  0  0  0  0  0  0
   -2.2974   -4.3273   -1.9651 C   0  0  0  0  0  0  0  0  0  0  0  0
   -0.8160    8.9253   -6.8268 C   0  0  0  0  0  0  0  0  0  0  0  0
   -1.6879    5.1751   -0.5384 N   0  0  0  0  0  0  0  0  0  0  0  0
   -3.5223    5.0642   -2.0957 C   0  0  0  0  0  0  0  0  0  0  0  0
   -2.8889   -4.6689   -3.2049 C   0  0  0  0  0  0  0  0  0  0  0  0
   -2.3785   -5.2584   -0.9014 C   0  0  0  0  0  0  0  0  0  0  0  0
   -0.5606    5.0743   -0.2452 O   0  0  0  0  0  0  0  0  0  0  0  0
   -2.4604    5.4305    0.4394 O   0  0  0  0  0  0  0  0  0  0  0  0
   -3.5386   -5.9077   -3.3760 C   0  0  0  0  0  0  0  0  0  0  0  0
   -3.0305   -6.4940   -1.0710 C   0  0  0  0  0  0  0  0  0  0  0  0
   -3.6136   -6.8178   -2.3076 C   0  0  0  0  0  0  0  0  0  0  0  0
   -1.7680   -0.2991   -3.1357 H   0  0  0  0  0  0  0  0  0  0  0  0
   -1.0770   -1.0129   -4.6093 H   0  0  0  0  0  0  0  0  0  0  0  0
   -1.2783    3.8980   -6.2117 H   0  0  0  0  0  0  0  0  0  0  0  0
    1.0613   -1.4017   -3.2561 H   0  0  0  0  0  0  0  0  0  0  0  0
    0.1588   -0.9932   -1.7999 H   0  0  0  0  0  0  0  0  0  0  0  0
    2.3598    1.0788   -4.8480 H   0  0  0  0  0  0  0  0  0  0  0  0
    3.3354    2.4137   -4.2150 H   0  0  0  0  0  0  0  0  0  0  0  0
    2.0489    1.7812   -3.2288 H   0  0  0  0  0  0  0  0  0  0  0  0
    2.8957    4.4002   -4.6905 H   0  0  0  0  0  0  0  0  0  0  0  0
   -0.2400    4.7834   -2.7071 H   0  0  0  0  0  0  0  0  0  0  0  0
   -3.4676    4.4097   -5.3788 H   0  0  0  0  0  0  0  0  0  0  0  0
   -2.3514   -2.2500   -1.9985 H   0  0  0  0  0  0  0  0  0  0  0  0
   -1.2875   -2.8736   -0.7574 H   0  0  0  0  0  0  0  0  0  0  0  0
    1.4770   -3.7262   -3.1328 H   0  0  0  0  0  0  0  0  0  0  0  0
    0.3397   -4.8356   -2.3983 H   0  0  0  0  0  0  0  0  0  0  0  0
    1.1128   -3.5909   -1.3998 H   0  0  0  0  0  0  0  0  0  0  0  0
    3.3156    6.2651   -5.5345 H   0  0  0  0  0  0  0  0  0  0  0  0
    2.1799    6.8337   -6.7515 H   0  0  0  0  0  0  0  0  0  0  0  0
    2.0309    7.3682   -5.0558 H   0  0  0  0  0  0  0  0  0  0  0  0
   -4.9988    4.9048   -3.5955 H   0  0  0  0  0  0  0  0  0  0  0  0
   -0.8098    8.8133   -7.9136 H   0  0  0  0  0  0  0  0  0  0  0  0
   -0.2411    9.8130   -6.5629 H   0  0  0  0  0  0  0  0  0  0  0  0
   -1.8449    9.0522   -6.4817 H   0  0  0  0  0  0  0  0  0  0  0  0
   -4.2068    5.2491   -1.3584 H   0  0  0  0  0  0  0  0  0  0  0  0
   -2.8509   -4.0168   -3.9927 H   0  0  0  0  0  0  0  0  0  0  0  0
   -1.9617   -5.0453    0.0066 H   0  0  0  0  0  0  0  0  0  0  0  0
   -3.9581   -6.1477   -4.2777 H   0  0  0  0  0  0  0  0  0  0  0  0
   -3.0840   -7.1576   -0.2962 H   0  0  0  0  0  0  0  0  0  0  0  0
   -4.0938   -7.7122   -2.4300 H   0  0  0  0  0  0  0  0  0  0  0  0
  1  2  1  0  0  0  0 
  1  3  2  0  0  0  0 
  1  4  1  0  0  0  0 
  2  5  1  0  0  0  0 
  6  4  1  0  0  0  0 
  4  7  2  0  0  0  0 
  5  8  1  0  0  0  0 
  6  9  1  0  0  0  0 
  6 10  1  0  0  0  0 
  7 11  1  0  0  0  0 
  7 12  1  0  0  0  0 
  8 13  1  0  0  0  0 
  9 14  1  0  0  0  0 
  9 15  2  0  0  0  0 
 10 16  2  0  0  0  0 
 10 17  1  0  0  0  0 
 12 15  1  0  0  0  0 
 13 18  1  0  0  0  0 
 13 19  1  0  0  0  0 
 14 20  1  0  0  0  0 
 14 21  2  0  0  0  0 
 15 22  1  0  0  0  0 
 16 23  1  0  0  0  0 
 17 24  2  0  0  0  0 
 18 25  1  0  0  0  0 
 20 26  1  0  0  0  0 
 23 27  1  0  0  0  0 
 23 28  2  0  0  0  0 
 24 28  1  0  0  0  0 
 25 29  2  0  0  0  0 
 25 30  1  0  0  0  0 
 27 31  2  0  0  0  0 
 27 32  1  0  0  0  0 
 29 33  1  0  0  0  0 
 30 34  2  0  0  0  0 
 33 35  2  0  0  0  0 
 34 35  1  0  0  0  0 
 36  5  1  0  0  0  0 
 37  5  1  0  0  0  0 
  6 38  1  0  0  0  0 
 39  8  1  0  0  0  0 
 40  8  1  0  0  0  0 
 41 11  1  0  0  0  0 
 42 11  1  0  0  0  0 
 43 11  1  0  0  0  0 
 44 12  1  0  0  0  0 
 45 16  1  0  0  0  0 
 46 17  1  0  0  0  0 
 47 18  1  0  0  0  0 
 48 18  1  0  0  0  0 
 49 19  1  0  0  0  0 
 50 19  1  0  0  0  0 
 51 19  1  0  0  0  0 
 52 22  1  0  0  0  0 
 53 22  1  0  0  0  0 
 54 22  1  0  0  0  0 
 55 24  1  0  0  0  0 
 56 26  1  0  0  0  0 
 57 26  1  0  0  0  0 
 58 26  1  0  0  0  0 
 59 28  1  0  0  0  0 
 60 29  1  0  0  0  0 
 61 30  1  0  0  0  0 
 62 33  1  0  0  0  0 
 63 34  1  0  0  0  0 
 64 35  1  0  0  0  0 
M  CHG  1  27   1
M  CHG  1  32  -1
M  END
> <cdk:Title>
(S)-nicardipine

> <Conformer>
3

> <SuperDrugID>
SD000002

$$$$
(S)-nicardipine
  CDK     0628171802

 64 66  0  0  0  0  0  0  0  0999 V2000
   -5.0151    1.0868   -0.9595 C   0  0  0  0  0  0  0  0  0  0  0  0
   -4.2775    0.0671   -1.4859 O   0  0  0  0  0  0  0  0  0  0  0  0
   -4.5200    1.7110    0.0104 O   0  0  0  0  0  0  0  0  0  0  0  0
   -6.2641    1.4620   -1.4981 C   0  0  0  0  0  0  0  0  0  0  0  0
   -2.9807   -0.3811   -1.0756 C   0  0  1  0  0  0  0  0  0  0  0  0
   -6.7917    2.8185   -1.1780 C   0  0  2  0  0  0  0  0  0  0  0  0
   -7.0065    0.6702   -2.3156 C   0  0  0  0  0  0  0  0  0  0  0  0
   -2.5236   -1.5286   -2.0065 C   0  0  1  0  0  0  0  0  0  0  0  0
   -8.1952    3.1127   -1.5711 C   0  0  0  0  0  0  0  0  0  0  0  0
   -5.8781    3.8589   -1.7736 C   0  0  0  0  0  0  0  0  0  0  0  0
   -6.6125   -0.7013   -2.7890 C   0  0  0  0  0  0  0  0  0  0  0  0
   -8.1974    1.0984   -2.7553 N   0  0  0  0  0  0  0  0  0  0  0  0
   -1.3349   -2.3132   -1.5289 N   0  0  1  0  0  0  0  0  0  0  0  0
   -8.8044    4.2847   -1.0753 C   0  0  0  0  0  0  0  0  0  0  0  0
   -8.8256    2.2212   -2.3798 C   0  0  0  0  0  0  0  0  0  0  0  0
   -5.6180    3.8945   -3.1688 C   0  0  0  0  0  0  0  0  0  0  0  0
   -5.2365    4.8150   -0.9522 C   0  0  0  0  0  0  0  0  0  0  0  0
   -1.0220   -3.4927   -2.4036 C   0  0  2  0  0  0  0  0  0  0  0  0
   -0.1178   -1.4817   -1.2804 C   0  0  0  0  0  0  0  0  0  0  0  0
   -9.8318    4.9079   -1.7285 O   0  0  0  0  0  0  0  0  0  0  0  0
   -8.3993    4.7985   -0.0045 O   0  0  0  0  0  0  0  0  0  0  0  0
  -10.1853    2.3594   -2.8886 C   0  0  0  0  0  0  0  0  0  0  0  0
   -4.7151    4.8223   -3.7519 C   0  0  0  0  0  0  0  0  0  0  0  0
   -4.3701    5.7706   -1.5057 C   0  0  0  0  0  0  0  0  0  0  0  0
   -2.0272   -4.5850   -2.2991 C   0  0  0  0  0  0  0  0  0  0  0  0
  -10.5728    6.0503   -1.2901 C   0  0  0  0  0  0  0  0  0  0  0  0
   -4.4274    4.8039   -5.0691 N   0  0  0  0  0  0  0  0  0  0  0  0
   -4.1137    5.7716   -2.8872 C   0  0  0  0  0  0  0  0  0  0  0  0
   -2.1846   -5.3093   -1.0918 C   0  0  0  0  0  0  0  0  0  0  0  0
   -2.8358   -4.9301   -3.4085 C   0  0  0  0  0  0  0  0  0  0  0  0
   -4.8686    4.0140   -5.8090 O   0  0  0  0  0  0  0  0  0  0  0  0
   -3.6354    5.6379   -5.6127 O   0  0  0  0  0  0  0  0  0  0  0  0
   -3.1238   -6.3552   -0.9991 C   0  0  0  0  0  0  0  0  0  0  0  0
   -3.7740   -5.9745   -3.3159 C   0  0  0  0  0  0  0  0  0  0  0  0
   -3.9150   -6.6907   -2.1132 C   0  0  0  0  0  0  0  0  0  0  0  0
   -2.2894    0.4608   -1.1560 H   0  0  0  0  0  0  0  0  0  0  0  0
   -3.0156   -0.7278   -0.0390 H   0  0  0  0  0  0  0  0  0  0  0  0
   -6.7828    2.8766   -0.0831 H   0  0  0  0  0  0  0  0  0  0  0  0
   -3.3729   -2.2098   -2.1018 H   0  0  0  0  0  0  0  0  0  0  0  0
   -2.3249   -1.1059   -2.9964 H   0  0  0  0  0  0  0  0  0  0  0  0
   -6.3183   -1.4970   -2.0392 H   0  0  0  0  0  0  0  0  0  0  0  0
   -7.4148   -1.1462   -3.3795 H   0  0  0  0  0  0  0  0  0  0  0  0
   -5.7738   -0.5836   -3.4756 H   0  0  0  0  0  0  0  0  0  0  0  0
   -8.6631    0.5257   -3.3865 H   0  0  0  0  0  0  0  0  0  0  0  0
   -6.0921    3.2163   -3.7707 H   0  0  0  0  0  0  0  0  0  0  0  0
   -5.3955    4.8212    0.0588 H   0  0  0  0  0  0  0  0  0  0  0  0
   -0.0606   -3.9358   -2.1264 H   0  0  0  0  0  0  0  0  0  0  0  0
   -0.9122   -3.1538   -3.4400 H   0  0  0  0  0  0  0  0  0  0  0  0
   -0.3152   -0.7170   -0.5286 H   0  0  0  0  0  0  0  0  0  0  0  0
    0.6907   -2.1021   -0.8864 H   0  0  0  0  0  0  0  0  0  0  0  0
    0.2275   -0.9959   -2.1968 H   0  0  0  0  0  0  0  0  0  0  0  0
  -10.5223    1.4684   -3.4241 H   0  0  0  0  0  0  0  0  0  0  0  0
  -10.8831    2.5240   -2.0670 H   0  0  0  0  0  0  0  0  0  0  0  0
  -10.2368    3.1976   -3.5854 H   0  0  0  0  0  0  0  0  0  0  0  0
   -3.9179    6.4619   -0.9021 H   0  0  0  0  0  0  0  0  0  0  0  0
  -11.0791    5.8239   -0.3522 H   0  0  0  0  0  0  0  0  0  0  0  0
  -11.3203    6.3013   -2.0415 H   0  0  0  0  0  0  0  0  0  0  0  0
   -9.9108    6.9040   -1.1531 H   0  0  0  0  0  0  0  0  0  0  0  0
   -3.4696    6.4755   -3.2548 H   0  0  0  0  0  0  0  0  0  0  0  0
   -1.6117   -5.0829   -0.2741 H   0  0  0  0  0  0  0  0  0  0  0  0
   -2.7454   -4.4239   -4.2933 H   0  0  0  0  0  0  0  0  0  0  0  0
   -3.2283   -6.8749   -0.1244 H   0  0  0  0  0  0  0  0  0  0  0  0
   -4.3560   -6.2099   -4.1246 H   0  0  0  0  0  0  0  0  0  0  0  0
   -4.5912   -7.4545   -2.0517 H   0  0  0  0  0  0  0  0  0  0  0  0
  1  2  1  0  0  0  0 
  1  3  2  0  0  0  0 
  1  4  1  0  0  0  0 
  2  5  1  0  0  0  0 
  6  4  1  0  0  0  0 
  4  7  2  0  0  0  0 
  5  8  1  0  0  0  0 
  6  9  1  0  0  0  0 
  6 10  1  0  0  0  0 
  7 11  1  0  0  0  0 
  7 12  1  0  0  0  0 
  8 13  1  0  0  0  0 
  9 14  1  0  0  0  0 
  9 15  2  0  0  0  0 
 10 16  2  0  0  0  0 
 10 17  1  0  0  0  0 
 12 15  1  0  0  0  0 
 13 18  1  0  0  0  0 
 13 19  1  0  0  0  0 
 14 20  1  0  0  0  0 
 14 21  2  0  0  0  0 
 15 22  1  0  0  0  0 
 16 23  1  0  0  0  0 
 17 24  2  0  0  0  0 
 18 25  1  0  0  0  0 
 20 26  1  0  0  0  0 
 23 27  1  0  0  0  0 
 23 28  2  0  0  0  0 
 24 28  1  0  0  0  0 
 25 29  2  0  0  0  0 
 25 30  1  0  0  0  0 
 27 31  2  0  0  0  0 
 27 32  1  0  0  0  0 
 29 33  1  0  0  0  0 
 30 34  2  0  0  0  0 
 33 35  2  0  0  0  0 
 34 35  1  0  0  0  0 
 36  5  1  0  0  0  0 
 37  5  1  0  0  0  0 
  6 38  1  0  0  0  0 
 39  8  1  0  0  0  0 
 40  8  1  0  0  0  0 
 41 11  1  0  0  0  0 
 42 11  1  0  0  0  0 
 43 11  1  0  0  0  0 
 44 12  1  0  0  0  0 
 45 16  1  0  0  0  0 
 46 17  1  0  0  0  0 
 47 18  1  0  0  0  0 
 48 18  1  0  0  0  0 
 49 19  1  0  0  0  0 
 50 19  1  0  0  0  0 
 51 19  1  0  0  0  0 
 52 22  1  0  0  0  0 
 53 22  1  0  0  0  0 
 54 22  1  0  0  0  0 
 55 24  1  0  0  0  0 
 56 26  1  0  0  0  0 
 57 26  1  0  0  0  0 
 58 26  1  0  0  0  0 
 59 28  1  0  0  0  0 
 60 29  1  0  0  0  0 
 61 30  1  0  0  0  0 
 62 33  1  0  0  0  0 
 63 34  1  0  0  0  0 
 64 35  1  0  0  0  0 
M  CHG  1  27   1
M  CHG  1  32  -1
M  END
> <cdk:Title>
(S)-nicardipine

> <Conformer>
4

> <SuperDrugID>
SD000002

$$$$
(S)-nicardipine
  CDK     0628171802

 64 66  0  0  0  0  0  0  0  0999 V2000
   -5.1037    0.9701   -1.0088 C   0  0  0  0  0  0  0  0  0  0  0  0
   -4.3686   -0.0572   -1.5242 O   0  0  0  0  0  0  0  0  0  0  0  0
   -4.5975    1.6178   -0.0598 O   0  0  0  0  0  0  0  0  0  0  0  0
   -6.3585    1.3380   -1.5368 C   0  0  0  0  0  0  0  0  0  0  0  0
   -3.0677   -0.4906   -1.1200 C   0  0  1  0  0  0  0  0  0  0  0  0
   -6.8897    2.6943   -1.2156 C   0  0  2  0  0  0  0  0  0  0  0  0
   -7.1036    0.5426   -2.3482 C   0  0  0  0  0  0  0  0  0  0  0  0
   -2.6033   -1.6489   -2.0358 C   0  0  1  0  0  0  0  0  0  0  0  0
   -8.2971    2.9792   -1.6028 C   0  0  0  0  0  0  0  0  0  0  0  0
   -5.9855    3.7402   -1.8157 C   0  0  0  0  0  0  0  0  0  0  0  0
   -6.7078   -0.8288   -2.8192 C   0  0  0  0  0  0  0  0  0  0  0  0
   -8.2969    0.9653   -2.7852 N   0  0  0  0  0  0  0  0  0  0  0  0
   -1.4087   -2.4143   -1.5406 N   0  0  1  0  0  0  0  0  0  0  0  0
   -8.9096    4.1496   -1.1067 C   0  0  0  0  0  0  0  0  0  0  0  0
   -8.9291    2.0829   -2.4044 C   0  0  0  0  0  0  0  0  0  0  0  0
   -5.7151    3.7646   -3.2081 C   0  0  0  0  0  0  0  0  0  0  0  0
   -5.3639    4.7128   -1.0000 C   0  0  0  0  0  0  0  0  0  0  0  0
   -1.0829   -3.6006   -2.4019 C   0  0  2  0  0  0  0  0  0  0  0  0
   -0.2010   -1.5661   -1.3070 C   0  0  0  0  0  0  0  0  0  0  0  0
   -9.9530    4.7584   -1.7499 O   0  0  0  0  0  0  0  0  0  0  0  0
   -8.4998    4.6766   -0.0435 O   0  0  0  0  0  0  0  0  0  0  0  0
  -10.2963    2.2045   -2.8980 C   0  0  0  0  0  0  0  0  0  0  0  0
   -4.8124    4.6914   -3.7912 C   0  0  0  0  0  0  0  0  0  0  0  0
   -4.5053    5.6739   -1.5550 C   0  0  0  0  0  0  0  0  0  0  0  0
   -2.0901   -4.6921   -2.3072 C   0  0  0  0  0  0  0  0  0  0  0  0
  -10.6923    5.9007   -1.3054 C   0  0  0  0  0  0  0  0  0  0  0  0
   -4.5115    4.6455   -5.1050 N   0  0  0  0  0  0  0  0  0  0  0  0
   -4.2313    5.6599   -2.9325 C   0  0  0  0  0  0  0  0  0  0  0  0
   -2.2396   -5.4272   -1.1067 C   0  0  0  0  0  0  0  0  0  0  0  0
   -2.9077   -5.0304   -3.4114 C   0  0  0  0  0  0  0  0  0  0  0  0
   -3.8261    5.4332   -5.6312 O   0  0  0  0  0  0  0  0  0  0  0  0
   -4.9372    3.7281   -5.8771 O   0  0  0  0  0  0  0  0  0  0  0  0
   -3.1733   -6.4772   -1.0141 C   0  0  0  0  0  0  0  0  0  0  0  0
   -3.8432   -6.0777   -3.3212 C   0  0  0  0  0  0  0  0  0  0  0  0
   -3.9714   -6.8045   -2.1244 C   0  0  0  0  0  0  0  0  0  0  0  0
   -2.3878    0.3579   -1.2260 H   0  0  0  0  0  0  0  0  0  0  0  0
   -3.0885   -0.8100   -0.0745 H   0  0  0  0  0  0  0  0  0  0  0  0
   -6.8730    2.7540   -0.1206 H   0  0  0  0  0  0  0  0  0  0  0  0
   -3.4490   -2.3375   -2.1176 H   0  0  0  0  0  0  0  0  0  0  0  0
   -2.4056   -1.2407   -3.0316 H   0  0  0  0  0  0  0  0  0  0  0  0
   -6.4147   -1.6236   -2.0671 H   0  0  0  0  0  0  0  0  0  0  0  0
   -7.5115   -1.2714   -3.4145 H   0  0  0  0  0  0  0  0  0  0  0  0
   -5.8685   -0.7102   -3.5068 H   0  0  0  0  0  0  0  0  0  0  0  0
   -8.7630    0.3911   -3.4144 H   0  0  0  0  0  0  0  0  0  0  0  0
   -6.1783    3.0771   -3.8058 H   0  0  0  0  0  0  0  0  0  0  0  0
   -5.5314    4.7297    0.0082 H   0  0  0  0  0  0  0  0  0  0  0  0
   -0.1275   -4.0427   -2.1040 H   0  0  0  0  0  0  0  0  0  0  0  0
   -0.9552   -3.2700   -3.4381 H   0  0  0  0  0  0  0  0  0  0  0  0
   -0.4071   -0.7971   -0.5639 H   0  0  0  0  0  0  0  0  0  0  0  0
    0.6174   -2.1698   -0.9080 H   0  0  0  0  0  0  0  0  0  0  0  0
    0.1317   -1.0858   -2.2304 H   0  0  0  0  0  0  0  0  0  0  0  0
  -10.6297    1.3102   -3.4304 H   0  0  0  0  0  0  0  0  0  0  0  0
  -10.9882    2.3601   -2.0685 H   0  0  0  0  0  0  0  0  0  0  0  0
  -10.3678    3.0421   -3.5937 H   0  0  0  0  0  0  0  0  0  0  0  0
   -4.0730    6.3818   -0.9564 H   0  0  0  0  0  0  0  0  0  0  0  0
  -11.1779    5.6776   -0.3532 H   0  0  0  0  0  0  0  0  0  0  0  0
  -11.4565    6.1384   -2.0453 H   0  0  0  0  0  0  0  0  0  0  0  0
  -10.0311    6.7612   -1.1881 H   0  0  0  0  0  0  0  0  0  0  0  0
   -3.5935    6.3682   -3.3055 H   0  0  0  0  0  0  0  0  0  0  0  0
   -1.6610   -5.2091   -0.2922 H   0  0  0  0  0  0  0  0  0  0  0  0
   -2.8291   -4.5166   -4.2908 H   0  0  0  0  0  0  0  0  0  0  0  0
   -3.2716   -7.0028   -0.1413 H   0  0  0  0  0  0  0  0  0  0  0  0
   -4.4278   -6.3139   -4.1273 H   0  0  0  0  0  0  0  0  0  0  0  0
   -4.6422   -7.5738   -2.0629 H   0  0  0  0  0  0  0  0  0  0  0  0
  1  2  1  0  0  0  0 
  1  3  2  0  0  0  0 
  1  4  1  0  0  0  0 
  2  5  1  0  0  0  0 
  6  4  1  0  0  0  0 
  4  7  2  0  0  0  0 
  5  8  1  0  0  0  0 
  6  9  1  0  0  0  0 
  6 10  1  0  0  0  0 
  7 11  1  0  0  0  0 
  7 12  1  0  0  0  0 
  8 13  1  0  0  0  0 
  9 14  1  0  0  0  0 
  9 15  2  0  0  0  0 
 10 16  2  0  0  0  0 
 10 17  1  0  0  0  0 
 12 15  1  0  0  0  0 
 13 18  1  0  0  0  0 
 13 19  1  0  0  0  0 
 14 20  1  0  0  0  0 
 14 21  2  0  0  0  0 
 15 22  1  0  0  0  0 
 16 23  1  0  0  0  0 
 17 24  2  0  0  0  0 
 18 25  1  0  0  0  0 
 20 26  1  0  0  0  0 
 23 27  1  0  0  0  0 
 23 28  2  0  0  0  0 
 24 28  1  0  0  0  0 
 25 29  2  0  0  0  0 
 25 30  1  0  0  0  0 
 27 31  2  0  0  0  0 
 27 32  1  0  0  0  0 
 29 33  1  0  0  0  0 
 30 34  2  0  0  0  0 
 33 35  2  0  0  0  0 
 34 35  1  0  0  0  0 
 36  5  1  0  0  0  0 
 37  5  1  0  0  0  0 
  6 38  1  0  0  0  0 
 39  8  1  0  0  0  0 
 40  8  1  0  0  0  0 
 41 11  1  0  0  0  0 
 42 11  1  0  0  0  0 
 43 11  1  0  0  0  0 
 44 12  1  0  0  0  0 
 45 16  1  0  0  0  0 
 46 17  1  0  0  0  0 
 47 18  1  0  0  0  0 
 48 18  1  0  0  0  0 
 49 19  1  0  0  0  0 
 50 19  1  0  0  0  0 
 51 19  1  0  0  0  0 
 52 22  1  0  0  0  0 
 53 22  1  0  0  0  0 
 54 22  1  0  0  0  0 
 55 24  1  0  0  0  0 
 56 26  1  0  0  0  0 
 57 26  1  0  0  0  0 
 58 26  1  0  0  0  0 
 59 28  1  0  0  0  0 
 60 29  1  0  0  0  0 
 61 30  1  0  0  0  0 
 62 33  1  0  0  0  0 
 63 34  1  0  0  0  0 
 64 35  1  0  0  0  0 
M  CHG  1  27   1
M  CHG  1  32  -1
M  END
> <cdk:Title>
(S)-nicardipine

> <Conformer>
5

> <SuperDrugID>
SD000002

$$$$
(S)-nicardipine
  CDK     0628171802

 64 66  0  0  0  0  0  0  0  0999 V2000
    0.2802    2.3729   -3.9122 C   0  0  0  0  0  0  0  0  0  0  0  0
    0.3593    1.0854   -3.4491 O   0  0  0  0  0  0  0  0  0  0  0  0
   -0.8703    2.8608   -4.0401 O   0  0  0  0  0  0  0  0  0  0  0  0
    1.4070    3.1652   -4.2191 C   0  0  0  0  0  0  0  0  0  0  0  0
   -0.7556    0.2673   -3.0558 C   0  0  1  0  0  0  0  0  0  0  0  0
    1.2460    4.6467   -4.1943 C   0  0  2  0  0  0  0  0  0  0  0  0
    2.6353    2.6700   -4.5162 C   0  0  0  0  0  0  0  0  0  0  0  0
   -0.3077   -1.1418   -2.5975 C   0  0  1  0  0  0  0  0  0  0  0  0
    2.3656    5.4687   -4.7226 C   0  0  0  0  0  0  0  0  0  0  0  0
    0.9474    5.0764   -2.7819 C   0  0  0  0  0  0  0  0  0  0  0  0
    2.9856    1.2093   -4.5335 C   0  0  0  0  0  0  0  0  0  0  0  0
    3.6330    3.5106   -4.8392 N   0  0  0  0  0  0  0  0  0  0  0  0
   -1.4317   -2.0980   -2.2967 N   0  0  1  0  0  0  0  0  0  0  0  0
    2.1441    6.8474   -4.9282 C   0  0  0  0  0  0  0  0  0  0  0  0
    3.5399    4.8422   -4.9912 C   0  0  0  0  0  0  0  0  0  0  0  0
    1.8575    4.8089   -1.7261 C   0  0  0  0  0  0  0  0  0  0  0  0
   -0.2636    5.7327   -2.4691 C   0  0  0  0  0  0  0  0  0  0  0  0
   -0.9298   -3.4924   -2.0402 C   0  0  1  0  0  0  0  0  0  0  0  0
   -2.3513   -1.6210   -1.2121 C   0  0  0  0  0  0  0  0  0  0  0  0
    3.1537    7.7693   -4.8708 O   0  0  0  0  0  0  0  0  0  0  0  0
    0.9857    7.2717   -5.1609 O   0  0  0  0  0  0  0  0  0  0  0  0
    4.7540    5.5023   -5.4630 C   0  0  0  0  0  0  0  0  0  0  0  0
    1.5799    5.1537   -0.3778 C   0  0  0  0  0  0  0  0  0  0  0  0
   -0.5554    6.1058   -1.1489 C   0  0  0  0  0  0  0  0  0  0  0  0
   -1.9917   -4.5376   -2.0851 C   0  0  0  0  0  0  0  0  0  0  0  0
    3.0665    9.1762   -5.1252 C   0  0  0  0  0  0  0  0  0  0  0  0
    2.4440    4.8463    0.6110 N   0  0  0  0  0  0  0  0  0  0  0  0
    0.3541    5.8191   -0.1180 C   0  0  0  0  0  0  0  0  0  0  0  0
   -2.3494   -5.2577   -0.9195 C   0  0  0  0  0  0  0  0  0  0  0  0
   -2.6648   -4.8353   -3.2949 C   0  0  0  0  0  0  0  0  0  0  0  0
    2.2766    5.1629    1.7237 O   0  0  0  0  0  0  0  0  0  0  0  0
    3.5056    4.1722    0.4131 O   0  0  0  0  0  0  0  0  0  0  0  0
   -3.3322   -6.2641   -0.9648 C   0  0  0  0  0  0  0  0  0  0  0  0
   -3.6459   -5.8458   -3.3422 C   0  0  0  0  0  0  0  0  0  0  0  0
   -3.9788   -6.5618   -2.1775 C   0  0  0  0  0  0  0  0  0  0  0  0
   -1.2669    0.7813   -2.2393 H   0  0  0  0  0  0  0  0  0  0  0  0
   -1.4458    0.1608   -3.8967 H   0  0  0  0  0  0  0  0  0  0  0  0
    0.3971    4.8556   -4.8574 H   0  0  0  0  0  0  0  0  0  0  0  0
    0.2905   -1.5496   -3.4161 H   0  0  0  0  0  0  0  0  0  0  0  0
    0.3481   -1.0444   -1.7283 H   0  0  0  0  0  0  0  0  0  0  0  0
    2.3651    0.4864   -5.1461 H   0  0  0  0  0  0  0  0  0  0  0  0
    4.0130    1.0747   -4.8810 H   0  0  0  0  0  0  0  0  0  0  0  0
    2.9685    0.8523   -3.5017 H   0  0  0  0  0  0  0  0  0  0  0  0
    4.5014    3.1131   -5.0021 H   0  0  0  0  0  0  0  0  0  0  0  0
    2.7362    4.3357   -1.9483 H   0  0  0  0  0  0  0  0  0  0  0  0
   -0.9448    5.9395   -3.2026 H   0  0  0  0  0  0  0  0  0  0  0  0
   -0.1835   -3.7720   -2.7902 H   0  0  0  0  0  0  0  0  0  0  0  0
   -0.4137   -3.5138   -1.0744 H   0  0  0  0  0  0  0  0  0  0  0  0
   -2.8425   -0.6883   -1.4895 H   0  0  0  0  0  0  0  0  0  0  0  0
   -3.1562   -2.3345   -1.0310 H   0  0  0  0  0  0  0  0  0  0  0  0
   -1.8012   -1.4695   -0.2797 H   0  0  0  0  0  0  0  0  0  0  0  0
    5.5481    4.7931   -5.7113 H   0  0  0  0  0  0  0  0  0  0  0  0
    4.5470    6.0877   -6.3616 H   0  0  0  0  0  0  0  0  0  0  0  0
    5.1403    6.1604   -4.6820 H   0  0  0  0  0  0  0  0  0  0  0  0
   -1.4340    6.5819   -0.9364 H   0  0  0  0  0  0  0  0  0  0  0  0
    2.7548    9.3520   -6.1555 H   0  0  0  0  0  0  0  0  0  0  0  0
    4.0495    9.6219   -4.9754 H   0  0  0  0  0  0  0  0  0  0  0  0
    2.3563    9.6464   -4.4442 H   0  0  0  0  0  0  0  0  0  0  0  0
    0.1058    6.0960    0.8358 H   0  0  0  0  0  0  0  0  0  0  0  0
   -1.9009   -5.0511   -0.0247 H   0  0  0  0  0  0  0  0  0  0  0  0
   -2.4447   -4.3185   -4.1495 H   0  0  0  0  0  0  0  0  0  0  0  0
   -3.5784   -6.7769   -0.1143 H   0  0  0  0  0  0  0  0  0  0  0  0
   -4.1176   -6.0622   -4.2230 H   0  0  0  0  0  0  0  0  0  0  0  0
   -4.6892   -7.2973   -2.2104 H   0  0  0  0  0  0  0  0  0  0  0  0
  1  2  1  0  0  0  0 
  1  3  2  0  0  0  0 
  1  4  1  0  0  0  0 
  2  5  1  0  0  0  0 
  6  4  1  0  0  0  0 
  4  7  2  0  0  0  0 
  5  8  1  0  0  0  0 
  6  9  1  0  0  0  0 
  6 10  1  0  0  0  0 
  7 11  1  0  0  0  0 
  7 12  1  0  0  0  0 
  8 13  1  0  0  0  0 
  9 14  1  0  0  0  0 
  9 15  2  0  0  0  0 
 10 16  2  0  0  0  0 
 10 17  1  0  0  0  0 
 12 15  1  0  0  0  0 
 13 18  1  0  0  0  0 
 13 19  1  0  0  0  0 
 14 20  1  0  0  0  0 
 14 21  2  0  0  0  0 
 15 22  1  0  0  0  0 
 16 23  1  0  0  0  0 
 17 24  2  0  0  0  0 
 18 25  1  0  0  0  0 
 20 26  1  0  0  0  0 
 23 27  1  0  0  0  0 
 23 28  2  0  0  0  0 
 24 28  1  0  0  0  0 
 25 29  2  0  0  0  0 
 25 30  1  0  0  0  0 
 27 31  2  0  0  0  0 
 27 32  1  0  0  0  0 
 29 33  1  0  0  0  0 
 30 34  2  0  0  0  0 
 33 35  2  0  0  0  0 
 34 35  1  0  0  0  0 
 36  5  1  0  0  0  0 
 37  5  1  0  0  0  0 
  6 38  1  0  0  0  0 
 39  8  1  0  0  0  0 
 40  8  1  0  0  0  0 
 41 11  1  0  0  0  0 
 42 11  1  0  0  0  0 
 43 11  1  0  0  0  0 
 44 12  1  0  0  0  0 
 45 16  1  0  0  0  0 
 46 17  1  0  0  0  0 
 47 18  1  0  0  0  0 
 48 18  1  0  0  0  0 
 49 19  1  0  0  0  0 
 50 19  1  0  0  0  0 
 51 19  1  0  0  0  0 
 52 22  1  0  0  0  0 
 53 22  1  0  0  0  0 
 54 22  1  0  0  0  0 
 55 24  1  0  0  0  0 
 56 26  1  0  0  0  0 
 57 26  1  0  0  0  0 
 58 26  1  0  0  0  0 
 59 28  1  0  0  0  0 
 60 29  1  0  0  0  0 
 61 30  1  0  0  0  0 
 62 33  1  0  0  0  0 
 63 34  1  0  0  0  0 
 64 35  1  0  0  0  0 
M  CHG  1  27   1
M  CHG  1  32  -1
M  END
> <cdk:Title>
(S)-nicardipine

> <Conformer>
6

> <SuperDrugID>
SD000002

$$$$
(S)-nicardipine
  CDK     0628171802

 64 66  0  0  0  0  0  0  0  0999 V2000
   -5.0849    1.1837   -1.6416 C   0  0  0  0  0  0  0  0  0  0  0  0
   -4.3528    0.0877   -2.0027 O   0  0  0  0  0  0  0  0  0  0  0  0
   -4.5940    1.9364   -0.7628 O   0  0  0  0  0  0  0  0  0  0  0  0
   -6.3208    1.4988   -2.2431 C   0  0  0  0  0  0  0  0  0  0  0  0
   -3.0716   -0.3002   -1.4962 C   0  0  1  0  0  0  0  0  0  0  0  0
   -6.8865    2.8589   -2.0259 C   0  0  2  0  0  0  0  0  0  0  0  0
   -7.0229    0.6432   -3.0323 C   0  0  0  0  0  0  0  0  0  0  0  0
   -2.5464   -1.5409   -2.2581 C   0  0  1  0  0  0  0  0  0  0  0  0
   -8.2819    3.0937   -2.4855 C   0  0  0  0  0  0  0  0  0  0  0  0
   -5.9948    3.8968   -2.6598 C   0  0  0  0  0  0  0  0  0  0  0  0
   -6.6039   -0.7522   -3.3985 C   0  0  0  0  0  0  0  0  0  0  0  0
   -8.1998    1.0201   -3.5469 N   0  0  0  0  0  0  0  0  0  0  0  0
   -1.3880   -2.2488   -1.6125 N   0  0  1  0  0  0  0  0  0  0  0  0
   -8.9251    4.2809   -2.0863 C   0  0  0  0  0  0  0  0  0  0  0  0
   -8.8663    2.1472   -3.2662 C   0  0  0  0  0  0  0  0  0  0  0  0
   -5.4689    4.9749   -1.9044 C   0  0  0  0  0  0  0  0  0  0  0  0
   -5.6706    3.8312   -4.0364 C   0  0  0  0  0  0  0  0  0  0  0  0
   -0.9938   -3.5045   -2.3400 C   0  0  2  0  0  0  0  0  0  0  0  0
   -0.2090   -1.3599   -1.3662 C   0  0  0  0  0  0  0  0  0  0  0  0
   -9.9207    4.8531   -2.8254 O   0  0  0  0  0  0  0  0  0  0  0  0
   -8.5718    4.8645   -1.0326 O   0  0  0  0  0  0  0  0  0  0  0  0
  -10.2082    2.2274   -3.8376 C   0  0  0  0  0  0  0  0  0  0  0  0
   -4.6430    5.9767   -2.4812 C   0  0  0  0  0  0  0  0  0  0  0  0
   -4.8257    4.7838   -4.6254 C   0  0  0  0  0  0  0  0  0  0  0  0
   -2.0200   -4.5818   -2.2751 C   0  0  0  0  0  0  0  0  0  0  0  0
  -10.6551    6.0374   -2.5108 C   0  0  0  0  0  0  0  0  0  0  0  0
   -4.1935    7.0185   -1.7537 N   0  0  0  0  0  0  0  0  0  0  0  0
   -4.3157    5.8405   -3.8550 C   0  0  0  0  0  0  0  0  0  0  0  0
   -2.2417   -5.2630   -1.0554 C   0  0  0  0  0  0  0  0  0  0  0  0
   -2.7780   -4.9608   -3.4117 C   0  0  0  0  0  0  0  0  0  0  0  0
   -3.4146    7.7909   -2.1583 O   0  0  0  0  0  0  0  0  0  0  0  0
   -4.5928    7.2510   -0.5684 O   0  0  0  0  0  0  0  0  0  0  0  0
   -3.1800   -6.3092   -0.9758 C   0  0  0  0  0  0  0  0  0  0  0  0
   -3.7215   -6.0037   -3.3298 C   0  0  0  0  0  0  0  0  0  0  0  0
   -3.9188   -6.6821   -2.1130 C   0  0  0  0  0  0  0  0  0  0  0  0
   -2.3823    0.5351   -1.6373 H   0  0  0  0  0  0  0  0  0  0  0  0
   -3.1542   -0.5244   -0.4301 H   0  0  0  0  0  0  0  0  0  0  0  0
   -6.9127    2.9819   -0.9359 H   0  0  0  0  0  0  0  0  0  0  0  0
   -3.3823   -2.2377   -2.3333 H   0  0  0  0  0  0  0  0  0  0  0  0
   -2.2815   -1.2370   -3.2748 H   0  0  0  0  0  0  0  0  0  0  0  0
   -6.3936   -1.5107   -2.5843 H   0  0  0  0  0  0  0  0  0  0  0  0
   -7.3566   -1.2219   -4.0357 H   0  0  0  0  0  0  0  0  0  0  0  0
   -5.7055   -0.6776   -4.0129 H   0  0  0  0  0  0  0  0  0  0  0  0
   -8.6211    0.4023   -4.1647 H   0  0  0  0  0  0  0  0  0  0  0  0
   -5.6999    5.0330   -0.9102 H   0  0  0  0  0  0  0  0  0  0  0  0
   -6.0423    3.0783   -4.6213 H   0  0  0  0  0  0  0  0  0  0  0  0
   -0.0850   -3.9254   -1.8978 H   0  0  0  0  0  0  0  0  0  0  0  0
   -0.7462   -3.2692   -3.3800 H   0  0  0  0  0  0  0  0  0  0  0  0
   -0.4705   -0.5335   -0.7052 H   0  0  0  0  0  0  0  0  0  0  0  0
    0.5911   -1.9049   -0.8631 H   0  0  0  0  0  0  0  0  0  0  0  0
    0.1821   -0.9507   -2.3012 H   0  0  0  0  0  0  0  0  0  0  0  0
  -10.4992    1.3115   -4.3597 H   0  0  0  0  0  0  0  0  0  0  0  0
  -10.9421    2.4014   -3.0482 H   0  0  0  0  0  0  0  0  0  0  0  0
  -10.2512    3.0401   -4.5648 H   0  0  0  0  0  0  0  0  0  0  0  0
   -4.5829    4.7084   -5.6163 H   0  0  0  0  0  0  0  0  0  0  0  0
  -11.1940    5.9119   -1.5704 H   0  0  0  0  0  0  0  0  0  0  0  0
  -11.3738    6.2256   -3.3076 H   0  0  0  0  0  0  0  0  0  0  0  0
   -9.9798    6.8900   -2.4326 H   0  0  0  0  0  0  0  0  0  0  0  0
   -3.7042    6.5198   -4.3150 H   0  0  0  0  0  0  0  0  0  0  0  0
   -1.7092   -5.0091   -0.2186 H   0  0  0  0  0  0  0  0  0  0  0  0
   -2.6538   -4.4788   -4.3061 H   0  0  0  0  0  0  0  0  0  0  0  0
   -3.3203   -6.8014   -0.0904 H   0  0  0  0  0  0  0  0  0  0  0  0
   -4.2648   -6.2717   -4.1547 H   0  0  0  0  0  0  0  0  0  0  0  0
   -4.5965   -7.4478   -2.0550 H   0  0  0  0  0  0  0  0  0  0  0  0
  1  2  1  0  0  0  0 
  1  3  2  0  0  0  0 
  1  4  1  0  0  0  0 
  2  5  1  0  0  0  0 
  6  4  1  0  0  0  0 
  4  7  2  0  0  0  0 
  5  8  1  0  0  0  0 
  6  9  1  0  0  0  0 
  6 10  1  0  0  0  0 
  7 11  1  0  0  0  0 
  7 12  1  0  0  0  0 
  8 13  1  0  0  0  0 
  9 14  1  0  0  0  0 
  9 15  2  0  0  0  0 
 10 16  2  0  0  0  0 
 10 17  1  0  0  0  0 
 12 15  1  0  0  0  0 
 13 18  1  0  0  0  0 
 13 19  1  0  0  0  0 
 14 20  1  0  0  0  0 
 14 21  2  0  0  0  0 
 15 22  1  0  0  0  0 
 16 23  1  0  0  0  0 
 17 24  2  0  0  0  0 
 18 25  1  0  0  0  0 
 20 26  1  0  0  0  0 
 23 27  1  0  0  0  0 
 23 28  2  0  0  0  0 
 24 28  1  0  0  0  0 
 25 29  2  0  0  0  0 
 25 30  1  0  0  0  0 
 27 31  2  0  0  0  0 
 27 32  1  0  0  0  0 
 29 33  1  0  0  0  0 
 30 34  2  0  0  0  0 
 33 35  2  0  0  0  0 
 34 35  1  0  0  0  0 
 36  5  1  0  0  0  0 
 37  5  1  0  0  0  0 
  6 38  1  0  0  0  0 
 39  8  1  0  0  0  0 
 40  8  1  0  0  0  0 
 41 11  1  0  0  0  0 
 42 11  1  0  0  0  0 
 43 11  1  0  0  0  0 
 44 12  1  0  0  0  0 
 45 16  1  0  0  0  0 
 46 17  1  0  0  0  0 
 47 18  1  0  0  0  0 
 48 18  1  0  0  0  0 
 49 19  1  0  0  0  0 
 50 19  1  0  0  0  0 
 51 19  1  0  0  0  0 
 52 22  1  0  0  0  0 
 53 22  1  0  0  0  0 
 54 22  1  0  0  0  0 
 55 24  1  0  0  0  0 
 56 26  1  0  0  0  0 
 57 26  1  0  0  0  0 
 58 26  1  0  0  0  0 
 59 28  1  0  0  0  0 
 60 29  1  0  0  0  0 
 61 30  1  0  0  0  0 
 62 33  1  0  0  0  0 
 63 34  1  0  0  0  0 
 64 35  1  0  0  0  0 
M  CHG  1  27   1
M  CHG  1  32  -1
M  END
> <cdk:Title>
(S)-nicardipine

> <Conformer>
7

> <SuperDrugID>
SD000002

$$$$
(S)-nicardipine
  CDK     0628171802

 64 66  0  0  0  0  0  0  0  0999 V2000
    0.1873    2.4467   -3.7719 C   0  0  0  0  0  0  0  0  0  0  0  0
    0.2844    1.1413   -3.3632 O   0  0  0  0  0  0  0  0  0  0  0  0
   -0.9704    2.9290   -3.8509 O   0  0  0  0  0  0  0  0  0  0  0  0
    1.2993    3.2555   -4.0853 C   0  0  0  0  0  0  0  0  0  0  0  0
   -0.8225    0.3055   -2.9851 C   0  0  1  0  0  0  0  0  0  0  0  0
    1.1087    4.7319   -4.0844 C   0  0  2  0  0  0  0  0  0  0  0  0
    2.5315    2.7767   -4.3975 C   0  0  0  0  0  0  0  0  0  0  0  0
   -0.3627   -1.1102   -2.5604 C   0  0  1  0  0  0  0  0  0  0  0  0
    2.2027    5.5592   -4.6508 C   0  0  0  0  0  0  0  0  0  0  0  0
    0.8317    5.2140   -2.6836 C   0  0  0  0  0  0  0  0  0  0  0  0
    2.9175    1.3239   -4.3998 C   0  0  0  0  0  0  0  0  0  0  0  0
    3.5064    3.6272   -4.7580 N   0  0  0  0  0  0  0  0  0  0  0  0
   -1.4735   -2.0909   -2.2904 N   0  0  1  0  0  0  0  0  0  0  0  0
    1.9474    6.9246   -4.8835 C   0  0  0  0  0  0  0  0  0  0  0  0
    3.3859    4.9539   -4.9282 C   0  0  0  0  0  0  0  0  0  0  0  0
   -0.3610    5.9143   -2.3764 C   0  0  0  0  0  0  0  0  0  0  0  0
    1.7630    4.9965   -1.6394 C   0  0  0  0  0  0  0  0  0  0  0  0
   -0.9416   -3.4749   -2.0334 C   0  0  1  0  0  0  0  0  0  0  0  0
   -2.4244   -1.6415   -1.2233 C   0  0  0  0  0  0  0  0  0  0  0  0
    2.9240    7.8764   -4.7884 O   0  0  0  0  0  0  0  0  0  0  0  0
    0.7862    7.3013   -5.1781 O   0  0  0  0  0  0  0  0  0  0  0  0
    4.5750    5.6356   -5.4317 C   0  0  0  0  0  0  0  0  0  0  0  0
   -0.6389    6.4075   -1.0734 C   0  0  0  0  0  0  0  0  0  0  0  0
    1.5088    5.4581   -0.3393 C   0  0  0  0  0  0  0  0  0  0  0  0
   -1.9888   -4.5343   -2.0840 C   0  0  0  0  0  0  0  0  0  0  0  0
    2.7825    9.2765   -5.0520 C   0  0  0  0  0  0  0  0  0  0  0  0
   -1.7694    7.0905   -0.8108 N   0  0  0  0  0  0  0  0  0  0  0  0
    0.3225    6.1549   -0.0614 C   0  0  0  0  0  0  0  0  0  0  0  0
   -2.3809   -5.2165   -0.9073 C   0  0  0  0  0  0  0  0  0  0  0  0
   -2.6209   -4.8698   -3.3050 C   0  0  0  0  0  0  0  0  0  0  0  0
   -2.0856    7.4049    0.2697 O   0  0  0  0  0  0  0  0  0  0  0  0
   -2.5796    7.4510   -1.7207 O   0  0  0  0  0  0  0  0  0  0  0  0
   -3.3739   -6.2111   -0.9496 C   0  0  0  0  0  0  0  0  0  0  0  0
   -3.6102   -5.8710   -3.3478 C   0  0  0  0  0  0  0  0  0  0  0  0
   -3.9867   -6.5415   -2.1705 C   0  0  0  0  0  0  0  0  0  0  0  0
   -1.3345    0.7941   -2.1547 H   0  0  0  0  0  0  0  0  0  0  0  0
   -1.5131    0.2160   -3.8247 H   0  0  0  0  0  0  0  0  0  0  0  0
    0.2477    4.9093   -4.7401 H   0  0  0  0  0  0  0  0  0  0  0  0
    0.2488   -1.4934   -3.3825 H   0  0  0  0  0  0  0  0  0  0  0  0
    0.2858   -1.0240   -1.6844 H   0  0  0  0  0  0  0  0  0  0  0  0
    2.3068    0.5758   -4.9919 H   0  0  0  0  0  0  0  0  0  0  0  0
    3.9410    1.2037   -4.7632 H   0  0  0  0  0  0  0  0  0  0  0  0
    2.9255    0.9814   -3.3637 H   0  0  0  0  0  0  0  0  0  0  0  0
    4.3763    3.2411   -4.9397 H   0  0  0  0  0  0  0  0  0  0  0  0
   -1.0415    6.0690   -3.1254 H   0  0  0  0  0  0  0  0  0  0  0  0
    2.6371    4.4971   -1.8198 H   0  0  0  0  0  0  0  0  0  0  0  0
   -0.1883   -3.7392   -2.7819 H   0  0  0  0  0  0  0  0  0  0  0  0
   -0.4296   -3.4887   -1.0647 H   0  0  0  0  0  0  0  0  0  0  0  0
   -2.9276   -0.7208   -1.5112 H   0  0  0  0  0  0  0  0  0  0  0  0
   -3.2146   -2.3730   -1.0633 H   0  0  0  0  0  0  0  0  0  0  0  0
   -1.8994   -1.4809   -0.2793 H   0  0  0  0  0  0  0  0  0  0  0  0
    5.3839    4.9435   -5.6738 H   0  0  0  0  0  0  0  0  0  0  0  0
    4.3377    6.1921   -6.3393 H   0  0  0  0  0  0  0  0  0  0  0  0
    4.9549    6.3231   -4.6743 H   0  0  0  0  0  0  0  0  0  0  0  0
    2.1900    5.2913    0.4056 H   0  0  0  0  0  0  0  0  0  0  0  0
    2.4563    9.4321   -6.0807 H   0  0  0  0  0  0  0  0  0  0  0  0
    3.7468    9.7619   -4.9112 H   0  0  0  0  0  0  0  0  0  0  0  0
    2.0575    9.7226   -4.3696 H   0  0  0  0  0  0  0  0  0  0  0  0
    0.1688    6.4822    0.8958 H   0  0  0  0  0  0  0  0  0  0  0  0
   -1.9519   -4.9869   -0.0083 H   0  0  0  0  0  0  0  0  0  0  0  0
   -2.3636   -4.3860   -4.1691 H   0  0  0  0  0  0  0  0  0  0  0  0
   -3.6482   -6.6932   -0.0918 H   0  0  0  0  0  0  0  0  0  0  0  0
   -4.0580   -6.1088   -4.2335 H   0  0  0  0  0  0  0  0  0  0  0  0
   -4.7064   -7.2653   -2.1998 H   0  0  0  0  0  0  0  0  0  0  0  0
  1  2  1  0  0  0  0 
  1  3  2  0  0  0  0 
  1  4  1  0  0  0  0 
  2  5  1  0  0  0  0 
  6  4  1  0  0  0  0 
  4  7  2  0  0  0  0 
  5  8  1  0  0  0  0 
  6  9  1  0  0  0  0 
  6 10  1  0  0  0  0 
  7 11  1  0  0  0  0 
  7 12  1  0  0  0  0 
  8 13  1  0  0  0  0 
  9 14  1  0  0  0  0 
  9 15  2  0  0  0  0 
 10 16  2  0  0  0  0 
 10 17  1  0  0  0  0 
 12 15  1  0  0  0  0 
 13 18  1  0  0  0  0 
 13 19  1  0  0  0  0 
 14 20  1  0  0  0  0 
 14 21  2  0  0  0  0 
 15 22  1  0  0  0  0 
 16 23  1  0  0  0  0 
 17 24  2  0  0  0  0 
 18 25  1  0  0  0  0 
 20 26  1  0  0  0  0 
 23 27  1  0  0  0  0 
 23 28  2  0  0  0  0 
 24 28  1  0  0  0  0 
 25 29  2  0  0  0  0 
 25 30  1  0  0  0  0 
 27 31  2  0  0  0  0 
 27 32  1  0  0  0  0 
 29 33  1  0  0  0  0 
 30 34  2  0  0  0  0 
 33 35  2  0  0  0  0 
 34 35  1  0  0  0  0 
 36  5  1  0  0  0  0 
 37  5  1  0  0  0  0 
  6 38  1  0  0  0  0 
 39  8  1  0  0  0  0 
 40  8  1  0  0  0  0 
 41 11  1  0  0  0  0 
 42 11  1  0  0  0  0 
 43 11  1  0  0  0  0 
 44 12  1  0  0  0  0 
 45 16  1  0  0  0  0 
 46 17  1  0  0  0  0 
 47 18  1  0  0  0  0 
 48 18  1  0  0  0  0 
 49 19  1  0  0  0  0 
 50 19  1  0  0  0  0 
 51 19  1  0  0  0  0 
 52 22  1  0  0  0  0 
 53 22  1  0  0  0  0 
 54 22  1  0  0  0  0 
 55 24  1  0  0  0  0 
 56 26  1  0  0  0  0 
 57 26  1  0  0  0  0 
 58 26  1  0  0  0  0 
 59 28  1  0  0  0  0 
 60 29  1  0  0  0  0 
 61 30  1  0  0  0  0 
 62 33  1  0  0  0  0 
 63 34  1  0  0  0  0 
 64 35  1  0  0  0  0 
M  CHG  1  27   1
M  CHG  1  32  -1
M  END
> <cdk:Title>
(S)-nicardipine

> <Conformer>
8

> <SuperDrugID>
SD000002

$$$$
(S)-nicardipine
  CDK     0628171802

 64 66  0  0  0  0  0  0  0  0999 V2000
    3.2924    0.0890   -0.0395 C   0  0  0  0  0  0  0  0  0  0  0  0
    2.0643   -0.2495   -0.5547 O   0  0  0  0  0  0  0  0  0  0  0  0
    4.1236   -0.8426    0.1024 O   0  0  0  0  0  0  0  0  0  0  0  0
    3.6713    1.4052    0.3066 C   0  0  0  0  0  0  0  0  0  0  0  0
    1.6873   -1.5700   -0.9896 C   0  0  1  0  0  0  0  0  0  0  0  0
    5.1261    1.7277    0.3578 C   0  0  2  0  0  0  0  0  0  0  0  0
    2.7967    2.4090    0.5715 C   0  0  0  0  0  0  0  0  0  0  0  0
    0.2310   -1.6174   -1.5099 C   0  0  1  0  0  0  0  0  0  0  0  0
    5.5188    3.0482    0.9184 C   0  0  0  0  0  0  0  0  0  0  0  0
    5.6894    1.5990   -1.0317 C   0  0  0  0  0  0  0  0  0  0  0  0
    1.3021    2.2713    0.5292 C   0  0  0  0  0  0  0  0  0  0  0  0
    3.2563    3.6237    0.9183 N   0  0  0  0  0  0  0  0  0  0  0  0
   -0.2826   -2.9939   -1.8437 N   0  0  1  0  0  0  0  0  0  0  0  0
    6.8825    3.2893    1.1956 C   0  0  0  0  0  0  0  0  0  0  0  0
    4.5366    3.9594    1.1407 C   0  0  0  0  0  0  0  0  0  0  0  0
    5.1954    2.3952   -2.0971 C   0  0  0  0  0  0  0  0  0  0  0  0
    6.7070    0.6605   -1.3154 C   0  0  0  0  0  0  0  0  0  0  0  0
   -1.7481   -2.9674   -2.1787 C   0  0  1  0  0  0  0  0  0  0  0  0
    0.5163   -3.6904   -2.9039 C   0  0  0  0  0  0  0  0  0  0  0  0
    7.4293    4.5461    1.1578 O   0  0  0  0  0  0  0  0  0  0  0  0
    7.6480    2.3315    1.4687 O   0  0  0  0  0  0  0  0  0  0  0  0
    4.7472    5.3191    1.6336 C   0  0  0  0  0  0  0  0  0  0  0  0
    5.6547    2.2502   -3.4320 C   0  0  0  0  0  0  0  0  0  0  0  0
    7.2039    0.5164   -2.6205 C   0  0  0  0  0  0  0  0  0  0  0  0
   -2.4013   -4.3112   -2.1811 C   0  0  0  0  0  0  0  0  0  0  0  0
    8.7736    4.9183    1.4818 C   0  0  0  0  0  0  0  0  0  0  0  0
    5.1369    2.9785   -4.4416 N   0  0  0  0  0  0  0  0  0  0  0  0
    6.6826    1.3014   -3.6632 C   0  0  0  0  0  0  0  0  0  0  0  0
   -2.9286   -4.8641   -3.3751 C   0  0  0  0  0  0  0  0  0  0  0  0
   -2.5196   -5.0601   -0.9840 C   0  0  0  0  0  0  0  0  0  0  0  0
    4.2640    3.7428   -4.2965 O   0  0  0  0  0  0  0  0  0  0  0  0
    5.5544    2.8848   -5.6391 O   0  0  0  0  0  0  0  0  0  0  0  0
   -3.5823   -6.1117   -3.3687 C   0  0  0  0  0  0  0  0  0  0  0  0
   -3.1714   -6.3108   -0.9766 C   0  0  0  0  0  0  0  0  0  0  0  0
   -3.7180   -6.8276   -2.1659 C   0  0  0  0  0  0  0  0  0  0  0  0
    2.3681   -1.8548   -1.7943 H   0  0  0  0  0  0  0  0  0  0  0  0
    1.7974   -2.2763   -0.1616 H   0  0  0  0  0  0  0  0  0  0  0  0
    5.5685    0.9822    1.0287 H   0  0  0  0  0  0  0  0  0  0  0  0
   -0.3918   -1.1849   -0.7206 H   0  0  0  0  0  0  0  0  0  0  0  0
    0.1540   -0.9670   -2.3861 H   0  0  0  0  0  0  0  0  0  0  0  0
    0.7932    1.4579    1.1324 H   0  0  0  0  0  0  0  0  0  0  0  0
    0.8260    3.2037    0.8434 H   0  0  0  0  0  0  0  0  0  0  0  0
    1.0095    2.1274   -0.5108 H   0  0  0  0  0  0  0  0  0  0  0  0
    2.5973    4.3250    1.0394 H   0  0  0  0  0  0  0  0  0  0  0  0
    4.4738    3.0914   -1.8927 H   0  0  0  0  0  0  0  0  0  0  0  0
    7.0927    0.0711   -0.5733 H   0  0  0  0  0  0  0  0  0  0  0  0
   -2.2943   -2.3586   -1.4508 H   0  0  0  0  0  0  0  0  0  0  0  0
   -1.8777   -2.4715   -3.1475 H   0  0  0  0  0  0  0  0  0  0  0  0
    1.5483   -3.8310   -2.5891 H   0  0  0  0  0  0  0  0  0  0  0  0
    0.1236   -4.6881   -3.1042 H   0  0  0  0  0  0  0  0  0  0  0  0
    0.5086   -3.1225   -3.8380 H   0  0  0  0  0  0  0  0  0  0  0  0
    3.8082    5.8375    1.8406 H   0  0  0  0  0  0  0  0  0  0  0  0
    5.3223    5.3119    2.5619 H   0  0  0  0  0  0  0  0  0  0  0  0
    5.2815    5.9004    0.8800 H   0  0  0  0  0  0  0  0  0  0  0  0
    7.9440   -0.1640   -2.8118 H   0  0  0  0  0  0  0  0  0  0  0  0
    8.9788    4.6974    2.5307 H   0  0  0  0  0  0  0  0  0  0  0  0
    8.8968    5.9882    1.3146 H   0  0  0  0  0  0  0  0  0  0  0  0
    9.4805    4.3799    0.8501 H   0  0  0  0  0  0  0  0  0  0  0  0
    7.0656    1.1671   -4.6019 H   0  0  0  0  0  0  0  0  0  0  0  0
   -2.8414   -4.3609   -4.2617 H   0  0  0  0  0  0  0  0  0  0  0  0
   -2.1366   -4.6965   -0.1068 H   0  0  0  0  0  0  0  0  0  0  0  0
   -3.9585   -6.4984   -4.2394 H   0  0  0  0  0  0  0  0  0  0  0  0
   -3.2516   -6.8433   -0.1058 H   0  0  0  0  0  0  0  0  0  0  0  0
   -4.2119   -7.7233   -2.1587 H   0  0  0  0  0  0  0  0  0  0  0  0
  1  2  1  0  0  0  0 
  1  3  2  0  0  0  0 
  1  4  1  0  0  0  0 
  2  5  1  0  0  0  0 
  6  4  1  0  0  0  0 
  4  7  2  0  0  0  0 
  5  8  1  0  0  0  0 
  6  9  1  0  0  0  0 
  6 10  1  0  0  0  0 
  7 11  1  0  0  0  0 
  7 12  1  0  0  0  0 
  8 13  1  0  0  0  0 
  9 14  1  0  0  0  0 
  9 15  2  0  0  0  0 
 10 16  2  0  0  0  0 
 10 17  1  0  0  0  0 
 12 15  1  0  0  0  0 
 13 18  1  0  0  0  0 
 13 19  1  0  0  0  0 
 14 20  1  0  0  0  0 
 14 21  2  0  0  0  0 
 15 22  1  0  0  0  0 
 16 23  1  0  0  0  0 
 17 24  2  0  0  0  0 
 18 25  1  0  0  0  0 
 20 26  1  0  0  0  0 
 23 27  1  0  0  0  0 
 23 28  2  0  0  0  0 
 24 28  1  0  0  0  0 
 25 29  2  0  0  0  0 
 25 30  1  0  0  0  0 
 27 31  2  0  0  0  0 
 27 32  1  0  0  0  0 
 29 33  1  0  0  0  0 
 30 34  2  0  0  0  0 
 33 35  2  0  0  0  0 
 34 35  1  0  0  0  0 
 36  5  1  0  0  0  0 
 37  5  1  0  0  0  0 
  6 38  1  0  0  0  0 
 39  8  1  0  0  0  0 
 40  8  1  0  0  0  0 
 41 11  1  0  0  0  0 
 42 11  1  0  0  0  0 
 43 11  1  0  0  0  0 
 44 12  1  0  0  0  0 
 45 16  1  0  0  0  0 
 46 17  1  0  0  0  0 
 47 18  1  0  0  0  0 
 48 18  1  0  0  0  0 
 49 19  1  0  0  0  0 
 50 19  1  0  0  0  0 
 51 19  1  0  0  0  0 
 52 22  1  0  0  0  0 
 53 22  1  0  0  0  0 
 54 22  1  0  0  0  0 
 55 24  1  0  0  0  0 
 56 26  1  0  0  0  0 
 57 26  1  0  0  0  0 
 58 26  1  0  0  0  0 
 59 28  1  0  0  0  0 
 60 29  1  0  0  0  0 
 61 30  1  0  0  0  0 
 62 33  1  0  0  0  0 
 63 34  1  0  0  0  0 
 64 35  1  0  0  0  0 
M  CHG  1  27   1
M  CHG  1  32  -1
M  END
> <cdk:Title>
(S)-nicardipine

> <Conformer>
9

> <SuperDrugID>
SD000002

$$$$
(S)-nicardipine
  CDK     0628171802

 64 66  0  0  0  0  0  0  0  0999 V2000
   -4.7125    0.5284    0.7800 C   0  0  0  0  0  0  0  0  0  0  0  0
   -4.1855   -0.2910   -0.1784 O   0  0  0  0  0  0  0  0  0  0  0  0
   -3.9236    0.9935    1.6402 O   0  0  0  0  0  0  0  0  0  0  0  0
   -6.0687    0.8956    0.7937 C   0  0  0  0  0  0  0  0  0  0  0  0
   -2.8163   -0.6859   -0.2767 C   0  0  1  0  0  0  0  0  0  0  0  0
   -6.4605    2.1025    1.5702 C   0  0  2  0  0  0  0  0  0  0  0  0
   -7.0387    0.2247    0.1214 C   0  0  0  0  0  0  0  0  0  0  0  0
   -2.5503   -1.5682   -1.5188 C   0  0  1  0  0  0  0  0  0  0  0  0
   -7.9168    2.3642    1.7184 C   0  0  0  0  0  0  0  0  0  0  0  0
   -5.7889    3.3153    0.9814 C   0  0  0  0  0  0  0  0  0  0  0  0
   -6.8299   -0.9979   -0.7267 C   0  0  0  0  0  0  0  0  0  0  0  0
   -8.3081    0.6380    0.1989 N   0  0  0  0  0  0  0  0  0  0  0  0
   -1.2505   -2.3176   -1.4227 N   0  0  1  0  0  0  0  0  0  0  0  0
   -8.3258    3.3649    2.6214 C   0  0  0  0  0  0  0  0  0  0  0  0
   -8.7806    1.6031    0.9956 C   0  0  0  0  0  0  0  0  0  0  0  0
   -5.9413    3.6363   -0.3910 C   0  0  0  0  0  0  0  0  0  0  0  0
   -4.9713    4.1545    1.7732 C   0  0  0  0  0  0  0  0  0  0  0  0
   -1.0920   -3.4422   -2.4088 C   0  0  2  0  0  0  0  0  0  0  0  0
   -0.0464   -1.4239   -1.4190 C   0  0  0  0  0  0  0  0  0  0  0  0
   -9.5325    3.9997    2.5109 O   0  0  0  0  0  0  0  0  0  0  0  0
   -7.5676    3.7185    3.5579 O   0  0  0  0  0  0  0  0  0  0  0  0
  -10.2361    1.7121    1.0194 C   0  0  0  0  0  0  0  0  0  0  0  0
   -5.2689    4.7287   -0.9972 C   0  0  0  0  0  0  0  0  0  0  0  0
   -4.3389    5.2757    1.2130 C   0  0  0  0  0  0  0  0  0  0  0  0
   -2.0837   -4.5500   -2.2998 C   0  0  0  0  0  0  0  0  0  0  0  0
  -10.0779    4.9690    3.4112 C   0  0  0  0  0  0  0  0  0  0  0  0
   -5.3670    4.9538   -2.3233 N   0  0  0  0  0  0  0  0  0  0  0  0
   -4.4816    5.5562   -0.1562 C   0  0  0  0  0  0  0  0  0  0  0  0
   -2.6533   -5.1325   -3.4595 C   0  0  0  0  0  0  0  0  0  0  0  0
   -2.4369   -5.0791   -1.0346 C   0  0  0  0  0  0  0  0  0  0  0  0
   -4.8876    5.8813   -2.8499 O   0  0  0  0  0  0  0  0  0  0  0  0
   -5.9683    4.1549   -3.1131 O   0  0  0  0  0  0  0  0  0  0  0  0
   -3.5426   -6.2200   -3.3564 C   0  0  0  0  0  0  0  0  0  0  0  0
   -3.3363   -6.1572   -0.9322 C   0  0  0  0  0  0  0  0  0  0  0  0
   -3.8822   -6.7351   -2.0926 C   0  0  0  0  0  0  0  0  0  0  0  0
   -2.2124    0.2199   -0.3354 H   0  0  0  0  0  0  0  0  0  0  0  0
   -2.5527   -1.2388    0.6271 H   0  0  0  0  0  0  0  0  0  0  0  0
   -6.0944    1.9139    2.5880 H   0  0  0  0  0  0  0  0  0  0  0  0
   -3.3809   -2.2712   -1.5925 H   0  0  0  0  0  0  0  0  0  0  0  0
   -2.5723   -0.9464   -2.4178 H   0  0  0  0  0  0  0  0  0  0  0  0
   -6.3359   -1.9155   -0.2836 H   0  0  0  0  0  0  0  0  0  0  0  0
   -7.7843   -1.3544   -1.1239 H   0  0  0  0  0  0  0  0  0  0  0  0
   -6.2428   -0.7033   -1.5984 H   0  0  0  0  0  0  0  0  0  0  0  0
   -8.9514    0.1734   -0.3588 H   0  0  0  0  0  0  0  0  0  0  0  0
   -6.5476    3.0445   -0.9637 H   0  0  0  0  0  0  0  0  0  0  0  0
   -4.8339    3.9610    2.7680 H   0  0  0  0  0  0  0  0  0  0  0  0
   -0.1223   -3.9227   -2.2450 H   0  0  0  0  0  0  0  0  0  0  0  0
   -1.0796   -3.0300   -3.4237 H   0  0  0  0  0  0  0  0  0  0  0  0
   -0.0915   -0.6926   -0.6116 H   0  0  0  0  0  0  0  0  0  0  0  0
    0.8654   -2.0016   -1.2553 H   0  0  0  0  0  0  0  0  0  0  0  0
    0.0484   -0.8896   -2.3668 H   0  0  0  0  0  0  0  0  0  0  0  0
  -10.7271    0.9240    0.4404 H   0  0  0  0  0  0  0  0  0  0  0  0
  -10.5969    1.6316    2.0468 H   0  0  0  0  0  0  0  0  0  0  0  0
  -10.5447    2.6682    0.5919 H   0  0  0  0  0  0  0  0  0  0  0  0
   -3.7678    5.8870    1.8011 H   0  0  0  0  0  0  0  0  0  0  0  0
  -10.2086    4.5302    4.4041 H   0  0  0  0  0  0  0  0  0  0  0  0
  -11.0511    5.2874    3.0343 H   0  0  0  0  0  0  0  0  0  0  0  0
   -9.4179    5.8367    3.4799 H   0  0  0  0  0  0  0  0  0  0  0  0
   -3.9950    6.3730   -0.5374 H   0  0  0  0  0  0  0  0  0  0  0  0
   -2.4113   -4.7830   -4.3915 H   0  0  0  0  0  0  0  0  0  0  0  0
   -2.0433   -4.6803   -0.1779 H   0  0  0  0  0  0  0  0  0  0  0  0
   -3.9389   -6.6401   -4.1998 H   0  0  0  0  0  0  0  0  0  0  0  0
   -3.5883   -6.5250   -0.0121 H   0  0  0  0  0  0  0  0  0  0  0  0
   -4.5216   -7.5308   -2.0171 H   0  0  0  0  0  0  0  0  0  0  0  0
  1  2  1  0  0  0  0 
  1  3  2  0  0  0  0 
  1  4  1  0  0  0  0 
  2  5  1  0  0  0  0 
  6  4  1  0  0  0  0 
  4  7  2  0  0  0  0 
  5  8  1  0  0  0  0 
  6  9  1  0  0  0  0 
  6 10  1  0  0  0  0 
  7 11  1  0  0  0  0 
  7 12  1  0  0  0  0 
  8 13  1  0  0  0  0 
  9 14  1  0  0  0  0 
  9 15  2  0  0  0  0 
 10 16  2  0  0  0  0 
 10 17  1  0  0  0  0 
 12 15  1  0  0  0  0 
 13 18  1  0  0  0  0 
 13 19  1  0  0  0  0 
 14 20  1  0  0  0  0 
 14 21  2  0  0  0  0 
 15 22  1  0  0  0  0 
 16 23  1  0  0  0  0 
 17 24  2  0  0  0  0 
 18 25  1  0  0  0  0 
 20 26  1  0  0  0  0 
 23 27  1  0  0  0  0 
 23 28  2  0  0  0  0 
 24 28  1  0  0  0  0 
 25 29  2  0  0  0  0 
 25 30  1  0  0  0  0 
 27 31  2  0  0  0  0 
 27 32  1  0  0  0  0 
 29 33  1  0  0  0  0 
 30 34  2  0  0  0  0 
 33 35  2  0  0  0  0 
 34 35  1  0  0  0  0 
 36  5  1  0  0  0  0 
 37  5  1  0  0  0  0 
  6 38  1  0  0  0  0 
 39  8  1  0  0  0  0 
 40  8  1  0  0  0  0 
 41 11  1  0  0  0  0 
 42 11  1  0  0  0  0 
 43 11  1  0  0  0  0 
 44 12  1  0  0  0  0 
 45 16  1  0  0  0  0 
 46 17  1  0  0  0  0 
 47 18  1  0  0  0  0 
 48 18  1  0  0  0  0 
 49 19  1  0  0  0  0 
 50 19  1  0  0  0  0 
 51 19  1  0  0  0  0 
 52 22  1  0  0  0  0 
 53 22  1  0  0  0  0 
 54 22  1  0  0  0  0 
 55 24  1  0  0  0  0 
 56 26  1  0  0  0  0 
 57 26  1  0  0  0  0 
 58 26  1  0  0  0  0 
 59 28  1  0  0  0  0 
 60 29  1  0  0  0  0 
 61 30  1  0  0  0  0 
 62 33  1  0  0  0  0 
 63 34  1  0  0  0  0 
 64 35  1  0  0  0  0 
M  CHG  1  27   1
M  CHG  1  32  -1
M  END
> <cdk:Title>
(S)-nicardipine

> <Conformer>
10

> <SuperDrugID>
SD000002

$$$$
