levdobutamine
  CDK     0628171801

 45 46  0  0  0  0  0  0  0  0999 V2000
    0.4794    0.0155   -3.1610 C   0  0  1  0  0  0  0  0  0  0  0  0
    0.3185    0.9597   -4.3781 C   0  0  2  0  0  0  0  0  0  0  0  0
    0.4290   -1.4247   -3.5383 C   0  0  0  0  0  0  0  0  0  0  0  0
    0.3102    2.3680   -3.9117 N   0  0  1  0  0  0  0  0  0  0  0  0
   -0.7816   -2.1524   -3.4381 C   0  0  0  0  0  0  0  0  0  0  0  0
    1.5892   -2.0979   -3.9941 C   0  0  0  0  0  0  0  0  0  0  0  0
    0.1344    3.4654   -4.9077 C   0  0  2  0  0  0  0  0  0  0  0  0
   -0.8310   -3.5151   -3.7852 C   0  0  0  0  0  0  0  0  0  0  0  0
    1.5474   -3.4707   -4.3195 C   0  0  0  0  0  0  0  0  0  0  0  0
   -1.2744    3.5160   -5.5831 C   0  0  2  0  0  0  0  0  0  0  0  0
    1.2694    3.4685   -5.9673 C   0  0  0  0  0  0  0  0  0  0  0  0
    0.3287   -4.1761   -4.2307 C   0  0  0  0  0  0  0  0  0  0  0  0
   -2.4860    3.6724   -4.6183 C   0  0  1  0  0  0  0  0  0  0  0  0
    0.2508   -5.4884   -4.5718 O   0  0  0  0  0  0  0  0  0  0  0  0
   -2.6019    5.0106   -3.9675 C   0  0  0  0  0  0  0  0  0  0  0  0
   -2.9814    6.1452   -4.7259 C   0  0  0  0  0  0  0  0  0  0  0  0
   -2.3637    5.1775   -2.5813 C   0  0  0  0  0  0  0  0  0  0  0  0
   -3.1122    7.4095   -4.1196 C   0  0  0  0  0  0  0  0  0  0  0  0
   -2.4893    6.4439   -1.9758 C   0  0  0  0  0  0  0  0  0  0  0  0
   -2.8621    7.5639   -2.7423 C   0  0  0  0  0  0  0  0  0  0  0  0
   -2.9753    8.7792   -2.1468 O   0  0  0  0  0  0  0  0  0  0  0  0
    2.6703   -4.1279   -4.7113 O   0  0  0  0  0  0  0  0  0  0  0  0
    1.4285    0.2275   -2.6584 H   0  0  0  0  0  0  0  0  0  0  0  0
   -0.3139    0.2382   -2.4402 H   0  0  0  0  0  0  0  0  0  0  0  0
   -0.6205    0.7314   -4.8853 H   0  0  0  0  0  0  0  0  0  0  0  0
    1.1466    0.7932   -5.0705 H   0  0  0  0  0  0  0  0  0  0  0  0
   -0.4430    2.4461   -3.2249 H   0  0  0  0  0  0  0  0  0  0  0  0
   -1.6386   -1.6959   -3.1136 H   0  0  0  0  0  0  0  0  0  0  0  0
    2.4738   -1.5882   -4.0831 H   0  0  0  0  0  0  0  0  0  0  0  0
    0.2546    4.3898   -4.3353 H   0  0  0  0  0  0  0  0  0  0  0  0
   -1.7144   -4.0267   -3.7150 H   0  0  0  0  0  0  0  0  0  0  0  0
   -1.4158    2.5965   -6.1574 H   0  0  0  0  0  0  0  0  0  0  0  0
   -1.2964    4.3414   -6.3015 H   0  0  0  0  0  0  0  0  0  0  0  0
    1.2486    4.3982   -6.5395 H   0  0  0  0  0  0  0  0  0  0  0  0
    2.2422    3.3879   -5.4776 H   0  0  0  0  0  0  0  0  0  0  0  0
    1.1546    2.6345   -6.6631 H   0  0  0  0  0  0  0  0  0  0  0  0
   -3.4036    3.4999   -5.1880 H   0  0  0  0  0  0  0  0  0  0  0  0
   -2.4426    2.8779   -3.8705 H   0  0  0  0  0  0  0  0  0  0  0  0
    1.0243   -5.6596   -5.1480 H   0  0  0  0  0  0  0  0  0  0  0  0
   -3.1771    6.0569   -5.7268 H   0  0  0  0  0  0  0  0  0  0  0  0
   -2.0911    4.3803   -2.0008 H   0  0  0  0  0  0  0  0  0  0  0  0
   -3.3941    8.2152   -4.6835 H   0  0  0  0  0  0  0  0  0  0  0  0
   -2.3026    6.5520   -0.9761 H   0  0  0  0  0  0  0  0  0  0  0  0
   -3.1576    9.4120   -2.8715 H   0  0  0  0  0  0  0  0  0  0  0  0
    3.4098   -3.4928   -4.6081 H   0  0  0  0  0  0  0  0  0  0  0  0
  1  2  1  0  0  0  0 
  1  3  1  0  0  0  0 
  2  4  1  0  0  0  0 
  3  5  2  0  0  0  0 
  3  6  1  0  0  0  0 
  7  4  1  0  0  0  0 
  5  8  1  0  0  0  0 
  6  9  2  0  0  0  0 
  7 10  1  0  0  0  0 
  7 11  1  0  0  0  0 
  8 12  2  0  0  0  0 
  9 12  1  0  0  0  0 
 10 13  1  0  0  0  0 
 12 14  1  0  0  0  0 
 13 15  1  0  0  0  0 
 15 16  2  0  0  0  0 
 15 17  1  0  0  0  0 
 16 18  1  0  0  0  0 
 17 19  2  0  0  0  0 
 18 20  2  0  0  0  0 
 19 20  1  0  0  0  0 
 20 21  1  0  0  0  0 
  9 22  1  0  0  0  0 
  1 23  1  0  0  0  0 
  1 24  1  0  0  0  0 
  2 25  1  0  0  0  0 
  2 26  1  0  0  0  0 
  4 27  1  0  0  0  0 
  5 28  1  0  0  0  0 
  6 29  1  0  0  0  0 
  7 30  1  0  0  0  0 
  8 31  1  0  0  0  0 
 10 32  1  0  0  0  0 
 10 33  1  0  0  0  0 
 11 34  1  0  0  0  0 
 11 35  1  0  0  0  0 
 11 36  1  0  0  0  0 
 13 37  1  0  0  0  0 
 13 38  1  0  0  0  0 
 14 39  1  0  0  0  0 
 16 40  1  0  0  0  0 
 17 41  1  0  0  0  0 
 18 42  1  0  0  0  0 
 19 43  1  0  0  0  0 
 21 44  1  0  0  0  0 
 22 45  1  0  0  0  0 
M  END
> <cdk:Title>
levdobutamine

> <Conformer>
1

> <SuperDrugID>
SD000004

$$$$
levdobutamine
  CDK     0628171801

 45 46  0  0  0  0  0  0  0  0999 V2000
    0.4021    0.2110   -2.5703 C   0  0  1  0  0  0  0  0  0  0  0  0
    0.2526    1.7509   -2.5099 C   0  0  2  0  0  0  0  0  0  0  0  0
    1.5700   -0.2162   -3.3868 C   0  0  0  0  0  0  0  0  0  0  0  0
   -0.0355    2.3026   -3.8582 N   0  0  1  0  0  0  0  0  0  0  0  0
    1.4153   -0.5319   -4.7566 C   0  0  0  0  0  0  0  0  0  0  0  0
    2.8602   -0.2979   -2.8125 C   0  0  0  0  0  0  0  0  0  0  0  0
   -0.0591    3.7806   -4.0429 C   0  0  2  0  0  0  0  0  0  0  0  0
    2.5212   -0.9117   -5.5361 C   0  0  0  0  0  0  0  0  0  0  0  0
    3.9682   -0.6877   -3.5896 C   0  0  0  0  0  0  0  0  0  0  0  0
    1.2858    4.4982   -3.7067 C   0  0  2  0  0  0  0  0  0  0  0  0
   -1.2747    4.4240   -3.3235 C   0  0  0  0  0  0  0  0  0  0  0  0
    3.7988   -0.9992   -4.9518 C   0  0  0  0  0  0  0  0  0  0  0  0
    2.5156    3.9419   -4.4813 C   0  0  2  0  0  0  0  0  0  0  0  0
    4.8558   -1.3915   -5.7033 O   0  0  0  0  0  0  0  0  0  0  0  0
    3.7856    4.5339   -3.9824 C   0  0  0  0  0  0  0  0  0  0  0  0
    4.5395    3.8781   -2.9792 C   0  0  0  0  0  0  0  0  0  0  0  0
    4.2485    5.7778   -4.4755 C   0  0  0  0  0  0  0  0  0  0  0  0
    5.7200    4.4552   -2.4768 C   0  0  0  0  0  0  0  0  0  0  0  0
    5.4303    6.3536   -3.9736 C   0  0  0  0  0  0  0  0  0  0  0  0
    6.1650    5.6943   -2.9716 C   0  0  0  0  0  0  0  0  0  0  0  0
    7.2975    6.2521   -2.4823 O   0  0  0  0  0  0  0  0  0  0  0  0
    5.1962   -0.7558   -3.0222 O   0  0  0  0  0  0  0  0  0  0  0  0
    0.5127   -0.1718   -1.5518 H   0  0  0  0  0  0  0  0  0  0  0  0
   -0.5201   -0.2209   -2.9662 H   0  0  0  0  0  0  0  0  0  0  0  0
    1.1727    2.1729   -2.1024 H   0  0  0  0  0  0  0  0  0  0  0  0
   -0.5682    1.9967   -1.8311 H   0  0  0  0  0  0  0  0  0  0  0  0
    0.6871    1.9418   -4.4826 H   0  0  0  0  0  0  0  0  0  0  0  0
    0.4945   -0.4849   -5.1977 H   0  0  0  0  0  0  0  0  0  0  0  0
    3.0005   -0.0728   -1.8252 H   0  0  0  0  0  0  0  0  0  0  0  0
   -0.2342    3.9299   -5.1124 H   0  0  0  0  0  0  0  0  0  0  0  0
    2.3957   -1.1251   -6.5286 H   0  0  0  0  0  0  0  0  0  0  0  0
    1.4687    4.4303   -2.6322 H   0  0  0  0  0  0  0  0  0  0  0  0
    1.1844    5.5602   -3.9485 H   0  0  0  0  0  0  0  0  0  0  0  0
   -1.3655    5.4768   -3.5994 H   0  0  0  0  0  0  0  0  0  0  0  0
   -2.1942    3.9149   -3.6181 H   0  0  0  0  0  0  0  0  0  0  0  0
   -1.1724    4.3571   -2.2395 H   0  0  0  0  0  0  0  0  0  0  0  0
    2.3980    4.1521   -5.5485 H   0  0  0  0  0  0  0  0  0  0  0  0
    2.5591    2.8543   -4.3838 H   0  0  0  0  0  0  0  0  0  0  0  0
    5.2175   -0.5617   -6.0785 H   0  0  0  0  0  0  0  0  0  0  0  0
    4.2284    2.9791   -2.6026 H   0  0  0  0  0  0  0  0  0  0  0  0
    3.7245    6.2731   -5.2008 H   0  0  0  0  0  0  0  0  0  0  0  0
    6.2505    3.9726   -1.7473 H   0  0  0  0  0  0  0  0  0  0  0  0
    5.7512    7.2547   -4.3369 H   0  0  0  0  0  0  0  0  0  0  0  0
    6.9976    6.8159   -1.7383 H   0  0  0  0  0  0  0  0  0  0  0  0
    5.5686    0.1430   -3.1410 H   0  0  0  0  0  0  0  0  0  0  0  0
  1  2  1  0  0  0  0 
  1  3  1  0  0  0  0 
  2  4  1  0  0  0  0 
  3  5  2  0  0  0  0 
  3  6  1  0  0  0  0 
  7  4  1  0  0  0  0 
  5  8  1  0  0  0  0 
  6  9  2  0  0  0  0 
  7 10  1  0  0  0  0 
  7 11  1  0  0  0  0 
  8 12  2  0  0  0  0 
  9 12  1  0  0  0  0 
 10 13  1  0  0  0  0 
 12 14  1  0  0  0  0 
 13 15  1  0  0  0  0 
 15 16  2  0  0  0  0 
 15 17  1  0  0  0  0 
 16 18  1  0  0  0  0 
 17 19  2  0  0  0  0 
 18 20  2  0  0  0  0 
 19 20  1  0  0  0  0 
 20 21  1  0  0  0  0 
  9 22  1  0  0  0  0 
  1 23  1  0  0  0  0 
  1 24  1  0  0  0  0 
  2 25  1  0  0  0  0 
  2 26  1  0  0  0  0 
  4 27  1  0  0  0  0 
  5 28  1  0  0  0  0 
  6 29  1  0  0  0  0 
  7 30  1  0  0  0  0 
  8 31  1  0  0  0  0 
 10 32  1  0  0  0  0 
 10 33  1  0  0  0  0 
 11 34  1  0  0  0  0 
 11 35  1  0  0  0  0 
 11 36  1  0  0  0  0 
 13 37  1  0  0  0  0 
 13 38  1  0  0  0  0 
 14 39  1  0  0  0  0 
 16 40  1  0  0  0  0 
 17 41  1  0  0  0  0 
 18 42  1  0  0  0  0 
 19 43  1  0  0  0  0 
 21 44  1  0  0  0  0 
 22 45  1  0  0  0  0 
M  END
> <cdk:Title>
levdobutamine

> <Conformer>
2

> <SuperDrugID>
SD000004

$$$$
levdobutamine
  CDK     0628171801

 45 46  0  0  0  0  0  0  0  0999 V2000
    0.1024   -0.0198   -2.9196 C   0  0  1  0  0  0  0  0  0  0  0  0
   -0.7023    1.0886   -3.6414 C   0  0  2  0  0  0  0  0  0  0  0  0
    0.6874    0.4498   -1.6354 C   0  0  0  0  0  0  0  0  0  0  0  0
    0.1862    2.2111   -4.0382 N   0  0  1  0  0  0  0  0  0  0  0  0
   -0.0784    0.4300   -0.4460 C   0  0  0  0  0  0  0  0  0  0  0  0
    2.0111    0.9447   -1.5849 C   0  0  0  0  0  0  0  0  0  0  0  0
   -0.4254    3.4426   -4.6103 C   0  0  2  0  0  0  0  0  0  0  0  0
    0.4676    0.8904    0.7648 C   0  0  0  0  0  0  0  0  0  0  0  0
    2.5566    1.4114   -0.3745 C   0  0  0  0  0  0  0  0  0  0  0  0
   -1.4245    4.1703   -3.6584 C   0  0  2  0  0  0  0  0  0  0  0  0
   -1.0263    3.1770   -6.0166 C   0  0  0  0  0  0  0  0  0  0  0  0
    1.7881    1.3745    0.8043 C   0  0  0  0  0  0  0  0  0  0  0  0
   -0.8248    4.5352   -2.2702 C   0  0  2  0  0  0  0  0  0  0  0  0
    2.3137    1.7983    1.9784 O   0  0  0  0  0  0  0  0  0  0  0  0
   -1.8699    5.0555   -1.3497 C   0  0  0  0  0  0  0  0  0  0  0  0
   -2.5446    4.1829   -0.4626 C   0  0  0  0  0  0  0  0  0  0  0  0
   -2.2322    6.4234   -1.3664 C   0  0  0  0  0  0  0  0  0  0  0  0
   -3.5611    4.6657    0.3817 C   0  0  0  0  0  0  0  0  0  0  0  0
   -3.2481    6.9062   -0.5205 C   0  0  0  0  0  0  0  0  0  0  0  0
   -3.9146    6.0269    0.3517 C   0  0  0  0  0  0  0  0  0  0  0  0
   -4.8974    6.4893    1.1603 O   0  0  0  0  0  0  0  0  0  0  0  0
    3.8158    1.9067   -0.3521 O   0  0  0  0  0  0  0  0  0  0  0  0
   -0.5598   -0.8691   -2.7276 H   0  0  0  0  0  0  0  0  0  0  0  0
    0.8891   -0.3812   -3.5871 H   0  0  0  0  0  0  0  0  0  0  0  0
   -1.4923    1.4341   -2.9725 H   0  0  0  0  0  0  0  0  0  0  0  0
   -1.1686    0.6589   -4.5312 H   0  0  0  0  0  0  0  0  0  0  0  0
    0.6905    2.4971   -3.1976 H   0  0  0  0  0  0  0  0  0  0  0  0
   -1.0375    0.0762   -0.4545 H   0  0  0  0  0  0  0  0  0  0  0  0
    2.5816    0.9756   -2.4333 H   0  0  0  0  0  0  0  0  0  0  0  0
    0.4109    4.1284   -4.7703 H   0  0  0  0  0  0  0  0  0  0  0  0
   -0.0967    0.8710    1.6168 H   0  0  0  0  0  0  0  0  0  0  0  0
   -2.3100    3.5447   -3.5220 H   0  0  0  0  0  0  0  0  0  0  0  0
   -1.7540    5.0953   -4.1406 H   0  0  0  0  0  0  0  0  0  0  0  0
   -1.3266    4.1168   -6.4844 H   0  0  0  0  0  0  0  0  0  0  0  0
   -0.2802    2.7014   -6.6562 H   0  0  0  0  0  0  0  0  0  0  0  0
   -1.8988    2.5241   -5.9569 H   0  0  0  0  0  0  0  0  0  0  0  0
   -0.0357    5.2806   -2.4006 H   0  0  0  0  0  0  0  0  0  0  0  0
   -0.3511    3.6576   -1.8247 H   0  0  0  0  0  0  0  0  0  0  0  0
    2.1057    2.7552    2.0162 H   0  0  0  0  0  0  0  0  0  0  0  0
   -2.3049    3.1888   -0.4321 H   0  0  0  0  0  0  0  0  0  0  0  0
   -1.7607    7.0751   -1.9980 H   0  0  0  0  0  0  0  0  0  0  0  0
   -4.0448    4.0230    1.0128 H   0  0  0  0  0  0  0  0  0  0  0  0
   -3.5025    7.8964   -0.5453 H   0  0  0  0  0  0  0  0  0  0  0  0
   -5.7178    6.4078    0.6293 H   0  0  0  0  0  0  0  0  0  0  0  0
    3.7049    2.8554   -0.5741 H   0  0  0  0  0  0  0  0  0  0  0  0
  1  2  1  0  0  0  0 
  1  3  1  0  0  0  0 
  2  4  1  0  0  0  0 
  3  5  2  0  0  0  0 
  3  6  1  0  0  0  0 
  7  4  1  0  0  0  0 
  5  8  1  0  0  0  0 
  6  9  2  0  0  0  0 
  7 10  1  0  0  0  0 
  7 11  1  0  0  0  0 
  8 12  2  0  0  0  0 
  9 12  1  0  0  0  0 
 10 13  1  0  0  0  0 
 12 14  1  0  0  0  0 
 13 15  1  0  0  0  0 
 15 16  2  0  0  0  0 
 15 17  1  0  0  0  0 
 16 18  1  0  0  0  0 
 17 19  2  0  0  0  0 
 18 20  2  0  0  0  0 
 19 20  1  0  0  0  0 
 20 21  1  0  0  0  0 
  9 22  1  0  0  0  0 
  1 23  1  0  0  0  0 
  1 24  1  0  0  0  0 
  2 25  1  0  0  0  0 
  2 26  1  0  0  0  0 
  4 27  1  0  0  0  0 
  5 28  1  0  0  0  0 
  6 29  1  0  0  0  0 
  7 30  1  0  0  0  0 
  8 31  1  0  0  0  0 
 10 32  1  0  0  0  0 
 10 33  1  0  0  0  0 
 11 34  1  0  0  0  0 
 11 35  1  0  0  0  0 
 11 36  1  0  0  0  0 
 13 37  1  0  0  0  0 
 13 38  1  0  0  0  0 
 14 39  1  0  0  0  0 
 16 40  1  0  0  0  0 
 17 41  1  0  0  0  0 
 18 42  1  0  0  0  0 
 19 43  1  0  0  0  0 
 21 44  1  0  0  0  0 
 22 45  1  0  0  0  0 
M  END
> <cdk:Title>
levdobutamine

> <Conformer>
3

> <SuperDrugID>
SD000004

$$$$
levdobutamine
  CDK     0628171801

 45 46  0  0  0  0  0  0  0  0999 V2000
    0.6438    0.0311   -3.1015 C   0  0  1  0  0  0  0  0  0  0  0  0
    0.8947    1.1021   -4.1922 C   0  0  2  0  0  0  0  0  0  0  0  0
    1.2399    0.3989   -1.7863 C   0  0  0  0  0  0  0  0  0  0  0  0
    0.2863    2.4040   -3.8191 N   0  0  1  0  0  0  0  0  0  0  0  0
    0.4382    0.9290   -0.7468 C   0  0  0  0  0  0  0  0  0  0  0  0
    2.6285    0.2450   -1.5551 C   0  0  0  0  0  0  0  0  0  0  0  0
    0.3629    3.5339   -4.7897 C   0  0  2  0  0  0  0  0  0  0  0  0
    1.0139    1.3223    0.4759 C   0  0  0  0  0  0  0  0  0  0  0  0
    3.2038    0.6151   -0.3229 C   0  0  0  0  0  0  0  0  0  0  0  0
   -0.4751    3.3266   -6.0947 C   0  0  2  0  0  0  0  0  0  0  0  0
    1.8327    3.9254   -5.1092 C   0  0  0  0  0  0  0  0  0  0  0  0
    2.3967    1.1718    0.6877 C   0  0  0  0  0  0  0  0  0  0  0  0
   -1.9804    2.9927   -5.8857 C   0  0  1  0  0  0  0  0  0  0  0  0
    2.9408    1.5742    1.8633 O   0  0  0  0  0  0  0  0  0  0  0  0
   -2.7694    4.1059   -5.2843 C   0  0  0  0  0  0  0  0  0  0  0  0
   -3.2700    5.1570   -6.0904 C   0  0  0  0  0  0  0  0  0  0  0  0
   -3.0388    4.1411   -3.8954 C   0  0  0  0  0  0  0  0  0  0  0  0
   -4.0189    6.2087   -5.5270 C   0  0  0  0  0  0  0  0  0  0  0  0
   -3.7779    5.1973   -3.3307 C   0  0  0  0  0  0  0  0  0  0  0  0
   -4.2742    6.2309   -4.1432 C   0  0  0  0  0  0  0  0  0  0  0  0
   -4.9909    7.2401   -3.5908 O   0  0  0  0  0  0  0  0  0  0  0  0
    4.5299    0.4350   -0.1068 O   0  0  0  0  0  0  0  0  0  0  0  0
   -0.4350   -0.1247   -3.0108 H   0  0  0  0  0  0  0  0  0  0  0  0
    1.0704   -0.9201   -3.4356 H   0  0  0  0  0  0  0  0  0  0  0  0
    0.4606    0.7447   -5.1275 H   0  0  0  0  0  0  0  0  0  0  0  0
    1.9725    1.2178   -4.3326 H   0  0  0  0  0  0  0  0  0  0  0  0
   -0.7023    2.2319   -3.6239 H   0  0  0  0  0  0  0  0  0  0  0  0
   -0.5701    1.0459   -0.8750 H   0  0  0  0  0  0  0  0  0  0  0  0
    3.2294   -0.1412   -2.2870 H   0  0  0  0  0  0  0  0  0  0  0  0
   -0.0669    4.3887   -4.2589 H   0  0  0  0  0  0  0  0  0  0  0  0
    0.4258    1.7264    1.2094 H   0  0  0  0  0  0  0  0  0  0  0  0
   -0.0265    2.5169   -6.6779 H   0  0  0  0  0  0  0  0  0  0  0  0
   -0.4057    4.2320   -6.7076 H   0  0  0  0  0  0  0  0  0  0  0  0
    1.8664    4.8999   -5.6000 H   0  0  0  0  0  0  0  0  0  0  0  0
    2.4192    3.9845   -4.1890 H   0  0  0  0  0  0  0  0  0  0  0  0
    2.2950    3.1916   -5.7738 H   0  0  0  0  0  0  0  0  0  0  0  0
   -2.4101    2.7431   -6.8601 H   0  0  0  0  0  0  0  0  0  0  0  0
   -2.0701    2.0870   -5.2814 H   0  0  0  0  0  0  0  0  0  0  0  0
    3.2468    2.4893    1.6880 H   0  0  0  0  0  0  0  0  0  0  0  0
   -3.0970    5.1621   -7.0995 H   0  0  0  0  0  0  0  0  0  0  0  0
   -2.6932    3.4014   -3.2804 H   0  0  0  0  0  0  0  0  0  0  0  0
   -4.3768    6.9553   -6.1255 H   0  0  0  0  0  0  0  0  0  0  0  0
   -3.9491    5.2136   -2.3234 H   0  0  0  0  0  0  0  0  0  0  0  0
   -4.3882    8.0110   -3.5882 H   0  0  0  0  0  0  0  0  0  0  0  0
    4.9697    1.1405   -0.6243 H   0  0  0  0  0  0  0  0  0  0  0  0
  1  2  1  0  0  0  0 
  1  3  1  0  0  0  0 
  2  4  1  0  0  0  0 
  3  5  2  0  0  0  0 
  3  6  1  0  0  0  0 
  7  4  1  0  0  0  0 
  5  8  1  0  0  0  0 
  6  9  2  0  0  0  0 
  7 10  1  0  0  0  0 
  7 11  1  0  0  0  0 
  8 12  2  0  0  0  0 
  9 12  1  0  0  0  0 
 10 13  1  0  0  0  0 
 12 14  1  0  0  0  0 
 13 15  1  0  0  0  0 
 15 16  2  0  0  0  0 
 15 17  1  0  0  0  0 
 16 18  1  0  0  0  0 
 17 19  2  0  0  0  0 
 18 20  2  0  0  0  0 
 19 20  1  0  0  0  0 
 20 21  1  0  0  0  0 
  9 22  1  0  0  0  0 
  1 23  1  0  0  0  0 
  1 24  1  0  0  0  0 
  2 25  1  0  0  0  0 
  2 26  1  0  0  0  0 
  4 27  1  0  0  0  0 
  5 28  1  0  0  0  0 
  6 29  1  0  0  0  0 
  7 30  1  0  0  0  0 
  8 31  1  0  0  0  0 
 10 32  1  0  0  0  0 
 10 33  1  0  0  0  0 
 11 34  1  0  0  0  0 
 11 35  1  0  0  0  0 
 11 36  1  0  0  0  0 
 13 37  1  0  0  0  0 
 13 38  1  0  0  0  0 
 14 39  1  0  0  0  0 
 16 40  1  0  0  0  0 
 17 41  1  0  0  0  0 
 18 42  1  0  0  0  0 
 19 43  1  0  0  0  0 
 21 44  1  0  0  0  0 
 22 45  1  0  0  0  0 
M  END
> <cdk:Title>
levdobutamine

> <Conformer>
4

> <SuperDrugID>
SD000004

$$$$
levdobutamine
  CDK     0628171801

 45 46  0  0  0  0  0  0  0  0999 V2000
    0.7087    0.1032   -2.9630 C   0  0  1  0  0  0  0  0  0  0  0  0
    1.2336    1.3340   -3.7429 C   0  0  2  0  0  0  0  0  0  0  0  0
   -0.4778   -0.5280   -3.6118 C   0  0  0  0  0  0  0  0  0  0  0  0
    0.2163    2.4156   -3.7473 N   0  0  1  0  0  0  0  0  0  0  0  0
   -0.3124   -1.4566   -4.6667 C   0  0  0  0  0  0  0  0  0  0  0  0
   -1.7915   -0.1970   -3.2008 C   0  0  0  0  0  0  0  0  0  0  0  0
    0.4598    3.6346   -4.5651 C   0  0  2  0  0  0  0  0  0  0  0  0
   -1.4304   -2.0484   -5.2838 C   0  0  0  0  0  0  0  0  0  0  0  0
   -2.9111   -0.7766   -3.8277 C   0  0  0  0  0  0  0  0  0  0  0  0
    0.5739    3.3612   -6.1010 C   0  0  2  0  0  0  0  0  0  0  0  0
    1.6352    4.4802   -4.0133 C   0  0  0  0  0  0  0  0  0  0  0  0
   -2.7310   -1.7133   -4.8645 C   0  0  0  0  0  0  0  0  0  0  0  0
   -0.6445    2.6206   -6.7263 C   0  0  1  0  0  0  0  0  0  0  0  0
   -3.8003   -2.2949   -5.4614 O   0  0  0  0  0  0  0  0  0  0  0  0
   -1.8705    3.4670   -6.7219 C   0  0  0  0  0  0  0  0  0  0  0  0
   -2.1073    4.3881   -7.7689 C   0  0  0  0  0  0  0  0  0  0  0  0
   -2.7870    3.4155   -5.6452 C   0  0  0  0  0  0  0  0  0  0  0  0
   -3.1992    5.2743   -7.7128 C   0  0  0  0  0  0  0  0  0  0  0  0
   -3.8707    4.3118   -5.5833 C   0  0  0  0  0  0  0  0  0  0  0  0
   -4.0701    5.2521   -6.6088 C   0  0  0  0  0  0  0  0  0  0  0  0
   -5.0901    6.1394   -6.5253 O   0  0  0  0  0  0  0  0  0  0  0  0
   -4.1565   -0.4291   -3.4235 O   0  0  0  0  0  0  0  0  0  0  0  0
    1.5149   -0.6336   -2.8790 H   0  0  0  0  0  0  0  0  0  0  0  0
    0.4688    0.4147   -1.9405 H   0  0  0  0  0  0  0  0  0  0  0  0
    1.4967    1.0252   -4.7569 H   0  0  0  0  0  0  0  0  0  0  0  0
    2.1401    1.6944   -3.2518 H   0  0  0  0  0  0  0  0  0  0  0  0
   -0.6573    2.0083   -4.0838 H   0  0  0  0  0  0  0  0  0  0  0  0
    0.6258   -1.7086   -4.9914 H   0  0  0  0  0  0  0  0  0  0  0  0
   -1.9402    0.4732   -2.4409 H   0  0  0  0  0  0  0  0  0  0  0  0
   -0.4268    4.2553   -4.4067 H   0  0  0  0  0  0  0  0  0  0  0  0
   -1.2943   -2.7233   -6.0394 H   0  0  0  0  0  0  0  0  0  0  0  0
    1.4758    2.7780   -6.2967 H   0  0  0  0  0  0  0  0  0  0  0  0
    0.7065    4.3145   -6.6202 H   0  0  0  0  0  0  0  0  0  0  0  0
    1.6808    5.4388   -4.5345 H   0  0  0  0  0  0  0  0  0  0  0  0
    1.4865    4.6784   -2.9482 H   0  0  0  0  0  0  0  0  0  0  0  0
    2.5881    3.9681   -4.1508 H   0  0  0  0  0  0  0  0  0  0  0  0
   -0.3950    2.3377   -7.7538 H   0  0  0  0  0  0  0  0  0  0  0  0
   -0.8226    1.6845   -6.1911 H   0  0  0  0  0  0  0  0  0  0  0  0
   -4.0338   -1.6925   -6.1982 H   0  0  0  0  0  0  0  0  0  0  0  0
   -1.4790    4.4283   -8.5753 H   0  0  0  0  0  0  0  0  0  0  0  0
   -2.6584    2.7419   -4.8856 H   0  0  0  0  0  0  0  0  0  0  0  0
   -3.3526    5.9404   -8.4720 H   0  0  0  0  0  0  0  0  0  0  0  0
   -4.5076    4.2874   -4.7852 H   0  0  0  0  0  0  0  0  0  0  0  0
   -4.6932    6.9273   -6.0966 H   0  0  0  0  0  0  0  0  0  0  0  0
   -4.3814    0.3587   -3.9616 H   0  0  0  0  0  0  0  0  0  0  0  0
  1  2  1  0  0  0  0 
  1  3  1  0  0  0  0 
  2  4  1  0  0  0  0 
  3  5  2  0  0  0  0 
  3  6  1  0  0  0  0 
  7  4  1  0  0  0  0 
  5  8  1  0  0  0  0 
  6  9  2  0  0  0  0 
  7 10  1  0  0  0  0 
  7 11  1  0  0  0  0 
  8 12  2  0  0  0  0 
  9 12  1  0  0  0  0 
 10 13  1  0  0  0  0 
 12 14  1  0  0  0  0 
 13 15  1  0  0  0  0 
 15 16  2  0  0  0  0 
 15 17  1  0  0  0  0 
 16 18  1  0  0  0  0 
 17 19  2  0  0  0  0 
 18 20  2  0  0  0  0 
 19 20  1  0  0  0  0 
 20 21  1  0  0  0  0 
  9 22  1  0  0  0  0 
  1 23  1  0  0  0  0 
  1 24  1  0  0  0  0 
  2 25  1  0  0  0  0 
  2 26  1  0  0  0  0 
  4 27  1  0  0  0  0 
  5 28  1  0  0  0  0 
  6 29  1  0  0  0  0 
  7 30  1  0  0  0  0 
  8 31  1  0  0  0  0 
 10 32  1  0  0  0  0 
 10 33  1  0  0  0  0 
 11 34  1  0  0  0  0 
 11 35  1  0  0  0  0 
 11 36  1  0  0  0  0 
 13 37  1  0  0  0  0 
 13 38  1  0  0  0  0 
 14 39  1  0  0  0  0 
 16 40  1  0  0  0  0 
 17 41  1  0  0  0  0 
 18 42  1  0  0  0  0 
 19 43  1  0  0  0  0 
 21 44  1  0  0  0  0 
 22 45  1  0  0  0  0 
M  END
> <cdk:Title>
levdobutamine

> <Conformer>
5

> <SuperDrugID>
SD000004

$$$$
levdobutamine
  CDK     0628171801

 45 46  0  0  0  0  0  0  0  0999 V2000
    0.2350    0.0148   -3.1206 C   0  0  1  0  0  0  0  0  0  0  0  0
   -0.2770    0.9798   -4.2175 C   0  0  2  0  0  0  0  0  0  0  0  0
   -0.2271    0.3873   -1.7551 C   0  0  0  0  0  0  0  0  0  0  0  0
    0.2892    2.3370   -4.0184 N   0  0  1  0  0  0  0  0  0  0  0  0
    0.5863    1.1693   -0.9010 C   0  0  0  0  0  0  0  0  0  0  0  0
   -1.4946   -0.0285   -1.2844 C   0  0  0  0  0  0  0  0  0  0  0  0
   -0.1999    3.4591   -4.8696 C   0  0  2  0  0  0  0  0  0  0  0  0
    0.1420    1.5346    0.3827 C   0  0  0  0  0  0  0  0  0  0  0  0
   -1.9386    0.3308    0.0021 C   0  0  0  0  0  0  0  0  0  0  0  0
   -1.7239    3.7778   -4.7083 C   0  0  2  0  0  0  0  0  0  0  0  0
    0.2487    3.3062   -6.3458 C   0  0  0  0  0  0  0  0  0  0  0  0
   -1.1185    1.1101    0.8395 C   0  0  0  0  0  0  0  0  0  0  0  0
   -2.1849    4.0692   -3.2460 C   0  0  1  0  0  0  0  0  0  0  0  0
   -1.5316    1.4464    2.0864 O   0  0  0  0  0  0  0  0  0  0  0  0
   -1.6251    5.3501   -2.7335 C   0  0  0  0  0  0  0  0  0  0  0  0
   -2.2781    6.5754   -3.0072 C   0  0  0  0  0  0  0  0  0  0  0  0
   -0.4003    5.3785   -2.0230 C   0  0  0  0  0  0  0  0  0  0  0  0
   -1.6885    7.7995   -2.6422 C   0  0  0  0  0  0  0  0  0  0  0  0
    0.1998    6.6024   -1.6793 C   0  0  0  0  0  0  0  0  0  0  0  0
   -0.4391    7.8158   -1.9973 C   0  0  0  0  0  0  0  0  0  0  0  0
    0.1467    8.9954   -1.6824 O   0  0  0  0  0  0  0  0  0  0  0  0
   -3.1581   -0.0741    0.4286 O   0  0  0  0  0  0  0  0  0  0  0  0
   -0.1110   -0.9939   -3.3552 H   0  0  0  0  0  0  0  0  0  0  0  0
    1.3270   -0.0168   -3.1579 H   0  0  0  0  0  0  0  0  0  0  0  0
   -1.3683    0.9964   -4.1873 H   0  0  0  0  0  0  0  0  0  0  0  0
    0.0375    0.5955   -5.1910 H   0  0  0  0  0  0  0  0  0  0  0  0
    0.0941    2.6000   -3.0515 H   0  0  0  0  0  0  0  0  0  0  0  0
    1.5093    1.4810   -1.2076 H   0  0  0  0  0  0  0  0  0  0  0  0
   -2.1032   -0.5978   -1.8767 H   0  0  0  0  0  0  0  0  0  0  0  0
    0.3399    4.3386   -4.5116 H   0  0  0  0  0  0  0  0  0  0  0  0
    0.7366    2.1102    0.9835 H   0  0  0  0  0  0  0  0  0  0  0  0
   -2.3143    2.9461   -5.0973 H   0  0  0  0  0  0  0  0  0  0  0  0
   -1.9732    4.6455   -5.3282 H   0  0  0  0  0  0  0  0  0  0  0  0
    0.0292    4.2180   -6.9072 H   0  0  0  0  0  0  0  0  0  0  0  0
    1.3274    3.1394   -6.3835 H   0  0  0  0  0  0  0  0  0  0  0  0
   -0.2560    2.4684   -6.8279 H   0  0  0  0  0  0  0  0  0  0  0  0
   -3.2786    4.1185   -3.2245 H   0  0  0  0  0  0  0  0  0  0  0  0
   -1.9059    3.2402   -2.5886 H   0  0  0  0  0  0  0  0  0  0  0  0
   -2.0004    2.2996    1.9742 H   0  0  0  0  0  0  0  0  0  0  0  0
   -3.1826    6.5845   -3.4855 H   0  0  0  0  0  0  0  0  0  0  0  0
    0.0741    4.5073   -1.7723 H   0  0  0  0  0  0  0  0  0  0  0  0
   -2.1672    8.6764   -2.8590 H   0  0  0  0  0  0  0  0  0  0  0  0
    1.1045    6.6069   -1.2035 H   0  0  0  0  0  0  0  0  0  0  0  0
    0.6674    9.2363   -2.4780 H   0  0  0  0  0  0  0  0  0  0  0  0
   -3.7668    0.6379    0.1395 H   0  0  0  0  0  0  0  0  0  0  0  0
  1  2  1  0  0  0  0 
  1  3  1  0  0  0  0 
  2  4  1  0  0  0  0 
  3  5  2  0  0  0  0 
  3  6  1  0  0  0  0 
  7  4  1  0  0  0  0 
  5  8  1  0  0  0  0 
  6  9  2  0  0  0  0 
  7 10  1  0  0  0  0 
  7 11  1  0  0  0  0 
  8 12  2  0  0  0  0 
  9 12  1  0  0  0  0 
 10 13  1  0  0  0  0 
 12 14  1  0  0  0  0 
 13 15  1  0  0  0  0 
 15 16  2  0  0  0  0 
 15 17  1  0  0  0  0 
 16 18  1  0  0  0  0 
 17 19  2  0  0  0  0 
 18 20  2  0  0  0  0 
 19 20  1  0  0  0  0 
 20 21  1  0  0  0  0 
  9 22  1  0  0  0  0 
  1 23  1  0  0  0  0 
  1 24  1  0  0  0  0 
  2 25  1  0  0  0  0 
  2 26  1  0  0  0  0 
  4 27  1  0  0  0  0 
  5 28  1  0  0  0  0 
  6 29  1  0  0  0  0 
  7 30  1  0  0  0  0 
  8 31  1  0  0  0  0 
 10 32  1  0  0  0  0 
 10 33  1  0  0  0  0 
 11 34  1  0  0  0  0 
 11 35  1  0  0  0  0 
 11 36  1  0  0  0  0 
 13 37  1  0  0  0  0 
 13 38  1  0  0  0  0 
 14 39  1  0  0  0  0 
 16 40  1  0  0  0  0 
 17 41  1  0  0  0  0 
 18 42  1  0  0  0  0 
 19 43  1  0  0  0  0 
 21 44  1  0  0  0  0 
 22 45  1  0  0  0  0 
M  END
> <cdk:Title>
levdobutamine

> <Conformer>
6

> <SuperDrugID>
SD000004

$$$$
levdobutamine
  CDK     0628171801

 45 46  0  0  0  0  0  0  0  0999 V2000
    0.5504    0.2231   -2.6170 C   0  0  1  0  0  0  0  0  0  0  0  0
    0.8373    1.7415   -2.7016 C   0  0  2  0  0  0  0  0  0  0  0  0
   -0.8917   -0.0579   -2.4033 C   0  0  0  0  0  0  0  0  0  0  0  0
    0.0163    2.3522   -3.7774 N   0  0  1  0  0  0  0  0  0  0  0  0
   -1.4457   -0.0052   -1.1044 C   0  0  0  0  0  0  0  0  0  0  0  0
   -1.7436   -0.3392   -3.4970 C   0  0  0  0  0  0  0  0  0  0  0  0
    0.1860    3.7964   -4.0936 C   0  0  2  0  0  0  0  0  0  0  0  0
   -2.8199   -0.2211   -0.9020 C   0  0  0  0  0  0  0  0  0  0  0  0
   -3.1208   -0.5459   -3.2972 C   0  0  0  0  0  0  0  0  0  0  0  0
    1.6331    4.1876   -4.5200 C   0  0  2  0  0  0  0  0  0  0  0  0
   -0.3734    4.7037   -2.9678 C   0  0  0  0  0  0  0  0  0  0  0  0
   -3.6586   -0.4965   -1.9970 C   0  0  0  0  0  0  0  0  0  0  0  0
    2.1828    3.3434   -5.7050 C   0  0  2  0  0  0  0  0  0  0  0  0
   -4.9791   -0.7154   -1.7933 O   0  0  0  0  0  0  0  0  0  0  0  0
    3.6282    3.6017   -5.9297 C   0  0  0  0  0  0  0  0  0  0  0  0
    4.6090    2.7800   -5.3241 C   0  0  0  0  0  0  0  0  0  0  0  0
    4.0509    4.6900   -6.7278 C   0  0  0  0  0  0  0  0  0  0  0  0
    5.9782    3.0455   -5.5052 C   0  0  0  0  0  0  0  0  0  0  0  0
    5.4206    4.9551   -6.9096 C   0  0  0  0  0  0  0  0  0  0  0  0
    6.3850    4.1358   -6.2950 C   0  0  0  0  0  0  0  0  0  0  0  0
    7.7025    4.3964   -6.4616 O   0  0  0  0  0  0  0  0  0  0  0  0
   -3.9254   -0.7752   -4.3615 O   0  0  0  0  0  0  0  0  0  0  0  0
    0.8985   -0.2542   -3.5369 H   0  0  0  0  0  0  0  0  0  0  0  0
    1.1346   -0.2108   -1.8019 H   0  0  0  0  0  0  0  0  0  0  0  0
    1.9011    1.8668   -2.9100 H   0  0  0  0  0  0  0  0  0  0  0  0
    0.6156    2.2125   -1.7417 H   0  0  0  0  0  0  0  0  0  0  0  0
    0.2143    1.8342   -4.6350 H   0  0  0  0  0  0  0  0  0  0  0  0
   -0.8517    0.1931   -0.2966 H   0  0  0  0  0  0  0  0  0  0  0  0
   -1.3688   -0.3789   -4.4483 H   0  0  0  0  0  0  0  0  0  0  0  0
   -0.4550    3.9708   -4.9619 H   0  0  0  0  0  0  0  0  0  0  0  0
   -3.2086   -0.1722    0.0425 H   0  0  0  0  0  0  0  0  0  0  0  0
    2.2947    4.0887   -3.6559 H   0  0  0  0  0  0  0  0  0  0  0  0
    1.6405    5.2403   -4.8165 H   0  0  0  0  0  0  0  0  0  0  0  0
   -0.3732    5.7471   -3.2899 H   0  0  0  0  0  0  0  0  0  0  0  0
   -1.4018    4.4217   -2.7374 H   0  0  0  0  0  0  0  0  0  0  0  0
    0.2244    4.6162   -2.0593 H   0  0  0  0  0  0  0  0  0  0  0  0
    1.6134    3.5726   -6.6105 H   0  0  0  0  0  0  0  0  0  0  0  0
    2.0371    2.2778   -5.5109 H   0  0  0  0  0  0  0  0  0  0  0  0
   -5.3932    0.1697   -1.8680 H   0  0  0  0  0  0  0  0  0  0  0  0
    4.3323    1.9863   -4.7407 H   0  0  0  0  0  0  0  0  0  0  0  0
    3.3630    5.2982   -7.1783 H   0  0  0  0  0  0  0  0  0  0  0  0
    6.6750    2.4456   -5.0578 H   0  0  0  0  0  0  0  0  0  0  0  0
    5.7119    5.7469   -7.4872 H   0  0  0  0  0  0  0  0  0  0  0  0
    7.9276    5.0157   -5.7358 H   0  0  0  0  0  0  0  0  0  0  0  0
   -4.1839    0.1203   -4.6671 H   0  0  0  0  0  0  0  0  0  0  0  0
  1  2  1  0  0  0  0 
  1  3  1  0  0  0  0 
  2  4  1  0  0  0  0 
  3  5  2  0  0  0  0 
  3  6  1  0  0  0  0 
  7  4  1  0  0  0  0 
  5  8  1  0  0  0  0 
  6  9  2  0  0  0  0 
  7 10  1  0  0  0  0 
  7 11  1  0  0  0  0 
  8 12  2  0  0  0  0 
  9 12  1  0  0  0  0 
 10 13  1  0  0  0  0 
 12 14  1  0  0  0  0 
 13 15  1  0  0  0  0 
 15 16  2  0  0  0  0 
 15 17  1  0  0  0  0 
 16 18  1  0  0  0  0 
 17 19  2  0  0  0  0 
 18 20  2  0  0  0  0 
 19 20  1  0  0  0  0 
 20 21  1  0  0  0  0 
  9 22  1  0  0  0  0 
  1 23  1  0  0  0  0 
  1 24  1  0  0  0  0 
  2 25  1  0  0  0  0 
  2 26  1  0  0  0  0 
  4 27  1  0  0  0  0 
  5 28  1  0  0  0  0 
  6 29  1  0  0  0  0 
  7 30  1  0  0  0  0 
  8 31  1  0  0  0  0 
 10 32  1  0  0  0  0 
 10 33  1  0  0  0  0 
 11 34  1  0  0  0  0 
 11 35  1  0  0  0  0 
 11 36  1  0  0  0  0 
 13 37  1  0  0  0  0 
 13 38  1  0  0  0  0 
 14 39  1  0  0  0  0 
 16 40  1  0  0  0  0 
 17 41  1  0  0  0  0 
 18 42  1  0  0  0  0 
 19 43  1  0  0  0  0 
 21 44  1  0  0  0  0 
 22 45  1  0  0  0  0 
M  END
> <cdk:Title>
levdobutamine

> <Conformer>
7

> <SuperDrugID>
SD000004

$$$$
levdobutamine
  CDK     0628171801

 45 46  0  0  0  0  0  0  0  0999 V2000
    0.0960    0.0591   -2.7826 C   0  0  1  0  0  0  0  0  0  0  0  0
   -0.6958    1.3539   -3.0858 C   0  0  2  0  0  0  0  0  0  0  0  0
    0.4444   -0.6824   -4.0207 C   0  0  0  0  0  0  0  0  0  0  0  0
    0.0800    2.2171   -4.0152 N   0  0  1  0  0  0  0  0  0  0  0  0
    1.6998   -0.4940   -4.6455 C   0  0  0  0  0  0  0  0  0  0  0  0
   -0.4907   -1.5561   -4.6184 C   0  0  0  0  0  0  0  0  0  0  0  0
   -0.4543    3.5548   -4.3855 C   0  0  2  0  0  0  0  0  0  0  0  0
    2.0072   -1.1516   -5.8482 C   0  0  0  0  0  0  0  0  0  0  0  0
   -0.1815   -2.2213   -5.8191 C   0  0  0  0  0  0  0  0  0  0  0  0
   -0.6910    4.5063   -3.1733 C   0  0  2  0  0  0  0  0  0  0  0  0
   -1.6922    3.4471   -5.3147 C   0  0  0  0  0  0  0  0  0  0  0  0
    1.0699   -2.0232   -6.4324 C   0  0  0  0  0  0  0  0  0  0  0  0
    0.5674    4.6970   -2.2744 C   0  0  2  0  0  0  0  0  0  0  0  0
    1.3790   -2.6686   -7.5819 O   0  0  0  0  0  0  0  0  0  0  0  0
    0.2353    5.4274   -1.0232 C   0  0  0  0  0  0  0  0  0  0  0  0
   -0.0926    4.7194    0.1583 C   0  0  0  0  0  0  0  0  0  0  0  0
    0.2094    6.8417   -0.9979 C   0  0  0  0  0  0  0  0  0  0  0  0
   -0.4447    5.4085    1.3325 C   0  0  0  0  0  0  0  0  0  0  0  0
   -0.1422    7.5304    0.1771 C   0  0  0  0  0  0  0  0  0  0  0  0
   -0.4727    6.8142    1.3417 C   0  0  0  0  0  0  0  0  0  0  0  0
   -0.8209    7.4766    2.4693 O   0  0  0  0  0  0  0  0  0  0  0  0
   -1.0977   -3.0413   -6.3833 O   0  0  0  0  0  0  0  0  0  0  0  0
    1.0013    0.3207   -2.2258 H   0  0  0  0  0  0  0  0  0  0  0  0
   -0.4990   -0.5796   -2.1252 H   0  0  0  0  0  0  0  0  0  0  0  0
   -0.8686    1.8657   -2.1376 H   0  0  0  0  0  0  0  0  0  0  0  0
   -1.6618    1.0977   -3.5242 H   0  0  0  0  0  0  0  0  0  0  0  0
    0.9950    2.3712   -3.5864 H   0  0  0  0  0  0  0  0  0  0  0  0
    2.3962    0.1316   -4.2329 H   0  0  0  0  0  0  0  0  0  0  0  0
   -1.4055   -1.7073   -4.1858 H   0  0  0  0  0  0  0  0  0  0  0  0
    0.3321    4.0136   -4.9936 H   0  0  0  0  0  0  0  0  0  0  0  0
    2.9116   -0.9924   -6.2981 H   0  0  0  0  0  0  0  0  0  0  0  0
   -1.5179    4.1184   -2.5731 H   0  0  0  0  0  0  0  0  0  0  0  0
   -0.9944    5.4892   -3.5481 H   0  0  0  0  0  0  0  0  0  0  0  0
   -1.9728    4.4355   -5.6866 H   0  0  0  0  0  0  0  0  0  0  0  0
   -1.4581    2.8151   -6.1739 H   0  0  0  0  0  0  0  0  0  0  0  0
   -2.5458    3.0173   -4.7866 H   0  0  0  0  0  0  0  0  0  0  0  0
    1.3358    5.2396   -2.8354 H   0  0  0  0  0  0  0  0  0  0  0  0
    1.0006    3.7269   -2.0175 H   0  0  0  0  0  0  0  0  0  0  0  0
    1.0799   -2.0660   -8.2948 H   0  0  0  0  0  0  0  0  0  0  0  0
   -0.0832    3.6956    0.1685 H   0  0  0  0  0  0  0  0  0  0  0  0
    0.4437    7.3773   -1.8378 H   0  0  0  0  0  0  0  0  0  0  0  0
   -0.6821    4.8828    2.1766 H   0  0  0  0  0  0  0  0  0  0  0  0
   -0.1582    8.5524    0.1798 H   0  0  0  0  0  0  0  0  0  0  0  0
   -1.7918    7.5949    2.3992 H   0  0  0  0  0  0  0  0  0  0  0  0
   -1.6285   -2.4504   -6.9582 H   0  0  0  0  0  0  0  0  0  0  0  0
  1  2  1  0  0  0  0 
  1  3  1  0  0  0  0 
  2  4  1  0  0  0  0 
  3  5  2  0  0  0  0 
  3  6  1  0  0  0  0 
  7  4  1  0  0  0  0 
  5  8  1  0  0  0  0 
  6  9  2  0  0  0  0 
  7 10  1  0  0  0  0 
  7 11  1  0  0  0  0 
  8 12  2  0  0  0  0 
  9 12  1  0  0  0  0 
 10 13  1  0  0  0  0 
 12 14  1  0  0  0  0 
 13 15  1  0  0  0  0 
 15 16  2  0  0  0  0 
 15 17  1  0  0  0  0 
 16 18  1  0  0  0  0 
 17 19  2  0  0  0  0 
 18 20  2  0  0  0  0 
 19 20  1  0  0  0  0 
 20 21  1  0  0  0  0 
  9 22  1  0  0  0  0 
  1 23  1  0  0  0  0 
  1 24  1  0  0  0  0 
  2 25  1  0  0  0  0 
  2 26  1  0  0  0  0 
  4 27  1  0  0  0  0 
  5 28  1  0  0  0  0 
  6 29  1  0  0  0  0 
  7 30  1  0  0  0  0 
  8 31  1  0  0  0  0 
 10 32  1  0  0  0  0 
 10 33  1  0  0  0  0 
 11 34  1  0  0  0  0 
 11 35  1  0  0  0  0 
 11 36  1  0  0  0  0 
 13 37  1  0  0  0  0 
 13 38  1  0  0  0  0 
 14 39  1  0  0  0  0 
 16 40  1  0  0  0  0 
 17 41  1  0  0  0  0 
 18 42  1  0  0  0  0 
 19 43  1  0  0  0  0 
 21 44  1  0  0  0  0 
 22 45  1  0  0  0  0 
M  END
> <cdk:Title>
levdobutamine

> <Conformer>
8

> <SuperDrugID>
SD000004

$$$$
levdobutamine
  CDK     0628171801

 45 46  0  0  0  0  0  0  0  0999 V2000
    0.1309    0.0699   -3.0175 C   0  0  1  0  0  0  0  0  0  0  0  0
   -0.6793    1.1469   -3.7835 C   0  0  2  0  0  0  0  0  0  0  0  0
    1.3435   -0.3680   -3.7672 C   0  0  0  0  0  0  0  0  0  0  0  0
    0.1902    2.3131   -4.0665 N   0  0  1  0  0  0  0  0  0  0  0  0
    1.2440   -1.3207   -4.8086 C   0  0  0  0  0  0  0  0  0  0  0  0
    2.6126    0.1895   -3.4770 C   0  0  0  0  0  0  0  0  0  0  0  0
   -0.3812    3.5221   -4.7155 C   0  0  2  0  0  0  0  0  0  0  0  0
    2.3845   -1.7046   -5.5397 C   0  0  0  0  0  0  0  0  0  0  0  0
    3.7503   -0.1745   -4.2233 C   0  0  0  0  0  0  0  0  0  0  0  0
   -1.5272    4.2031   -3.9015 C   0  0  2  0  0  0  0  0  0  0  0  0
   -0.7679    3.2573   -6.1914 C   0  0  0  0  0  0  0  0  0  0  0  0
    3.6372   -1.1282   -5.2544 C   0  0  0  0  0  0  0  0  0  0  0  0
   -1.1437    4.5930   -2.4429 C   0  0  1  0  0  0  0  0  0  0  0  0
    4.7264   -1.4956   -5.9743 O   0  0  0  0  0  0  0  0  0  0  0  0
   -0.1462    5.6996   -2.4011 C   0  0  0  0  0  0  0  0  0  0  0  0
   -0.5696    7.0487   -2.4626 C   0  0  0  0  0  0  0  0  0  0  0  0
    1.2426    5.4272   -2.3590 C   0  0  0  0  0  0  0  0  0  0  0  0
    0.3699    8.0931   -2.5401 C   0  0  0  0  0  0  0  0  0  0  0  0
    2.1813    6.4717   -2.4465 C   0  0  0  0  0  0  0  0  0  0  0  0
    1.7456    7.8034   -2.5590 C   0  0  0  0  0  0  0  0  0  0  0  0
    2.6508    8.7986   -2.7011 O   0  0  0  0  0  0  0  0  0  0  0  0
    4.9461    0.3998   -3.9423 O   0  0  0  0  0  0  0  0  0  0  0  0
    0.4137    0.4826   -2.0435 H   0  0  0  0  0  0  0  0  0  0  0  0
   -0.5134   -0.7917   -2.8153 H   0  0  0  0  0  0  0  0  0  0  0  0
   -1.5214    1.4466   -3.1590 H   0  0  0  0  0  0  0  0  0  0  0  0
   -1.0716    0.7278   -4.7110 H   0  0  0  0  0  0  0  0  0  0  0  0
    0.5841    2.6074   -3.1710 H   0  0  0  0  0  0  0  0  0  0  0  0
    0.3390   -1.7394   -5.0412 H   0  0  0  0  0  0  0  0  0  0  0  0
    2.7132    0.8766   -2.7249 H   0  0  0  0  0  0  0  0  0  0  0  0
    0.4514    4.2302   -4.7660 H   0  0  0  0  0  0  0  0  0  0  0  0
    2.2998   -2.4012   -6.2842 H   0  0  0  0  0  0  0  0  0  0  0  0
   -2.3904    3.5336   -3.8706 H   0  0  0  0  0  0  0  0  0  0  0  0
   -1.8489    5.1053   -4.4295 H   0  0  0  0  0  0  0  0  0  0  0  0
   -1.0357    4.1956   -6.6788 H   0  0  0  0  0  0  0  0  0  0  0  0
    0.0787    2.8218   -6.7270 H   0  0  0  0  0  0  0  0  0  0  0  0
   -1.6175    2.5791   -6.2610 H   0  0  0  0  0  0  0  0  0  0  0  0
   -2.0506    4.8939   -1.9094 H   0  0  0  0  0  0  0  0  0  0  0  0
   -0.7647    3.7139   -1.9170 H   0  0  0  0  0  0  0  0  0  0  0  0
    4.7567   -0.8595   -6.7197 H   0  0  0  0  0  0  0  0  0  0  0  0
   -1.5668    7.2772   -2.4620 H   0  0  0  0  0  0  0  0  0  0  0  0
    1.5783    4.4630   -2.2925 H   0  0  0  0  0  0  0  0  0  0  0  0
    0.0496    9.0623   -2.5928 H   0  0  0  0  0  0  0  0  0  0  0  0
    3.1813    6.2620   -2.4412 H   0  0  0  0  0  0  0  0  0  0  0  0
    2.7293    8.9197   -3.6718 H   0  0  0  0  0  0  0  0  0  0  0  0
    4.9574    1.2216   -4.4772 H   0  0  0  0  0  0  0  0  0  0  0  0
  1  2  1  0  0  0  0 
  1  3  1  0  0  0  0 
  2  4  1  0  0  0  0 
  3  5  2  0  0  0  0 
  3  6  1  0  0  0  0 
  7  4  1  0  0  0  0 
  5  8  1  0  0  0  0 
  6  9  2  0  0  0  0 
  7 10  1  0  0  0  0 
  7 11  1  0  0  0  0 
  8 12  2  0  0  0  0 
  9 12  1  0  0  0  0 
 10 13  1  0  0  0  0 
 12 14  1  0  0  0  0 
 13 15  1  0  0  0  0 
 15 16  2  0  0  0  0 
 15 17  1  0  0  0  0 
 16 18  1  0  0  0  0 
 17 19  2  0  0  0  0 
 18 20  2  0  0  0  0 
 19 20  1  0  0  0  0 
 20 21  1  0  0  0  0 
  9 22  1  0  0  0  0 
  1 23  1  0  0  0  0 
  1 24  1  0  0  0  0 
  2 25  1  0  0  0  0 
  2 26  1  0  0  0  0 
  4 27  1  0  0  0  0 
  5 28  1  0  0  0  0 
  6 29  1  0  0  0  0 
  7 30  1  0  0  0  0 
  8 31  1  0  0  0  0 
 10 32  1  0  0  0  0 
 10 33  1  0  0  0  0 
 11 34  1  0  0  0  0 
 11 35  1  0  0  0  0 
 11 36  1  0  0  0  0 
 13 37  1  0  0  0  0 
 13 38  1  0  0  0  0 
 14 39  1  0  0  0  0 
 16 40  1  0  0  0  0 
 17 41  1  0  0  0  0 
 18 42  1  0  0  0  0 
 19 43  1  0  0  0  0 
 21 44  1  0  0  0  0 
 22 45  1  0  0  0  0 
M  END
> <cdk:Title>
levdobutamine

> <Conformer>
9

> <SuperDrugID>
SD000004

$$$$
levdobutamine
  CDK     0628171801

 45 46  0  0  0  0  0  0  0  0999 V2000
    0.2148   -0.1062   -3.0726 C   0  0  1  0  0  0  0  0  0  0  0  0
   -0.3448    0.9023   -4.1065 C   0  0  2  0  0  0  0  0  0  0  0  0
   -0.3984   -1.4451   -3.3045 C   0  0  0  0  0  0  0  0  0  0  0  0
    0.2872    2.2370   -3.9758 N   0  0  1  0  0  0  0  0  0  0  0  0
    0.1669   -2.3420   -4.2423 C   0  0  0  0  0  0  0  0  0  0  0  0
   -1.6087   -1.8096   -2.6674 C   0  0  0  0  0  0  0  0  0  0  0  0
   -0.2492    3.3398   -4.8283 C   0  0  2  0  0  0  0  0  0  0  0  0
   -0.4780   -3.5510   -4.5617 C   0  0  0  0  0  0  0  0  0  0  0  0
   -2.2659   -3.0109   -2.9984 C   0  0  0  0  0  0  0  0  0  0  0  0
   -1.7662    3.6580   -4.6169 C   0  0  2  0  0  0  0  0  0  0  0  0
    0.0696    3.1014   -6.3301 C   0  0  0  0  0  0  0  0  0  0  0  0
   -1.7018   -3.8828   -3.9506 C   0  0  0  0  0  0  0  0  0  0  0  0
   -2.1628    3.9416   -3.1406 C   0  0  2  0  0  0  0  0  0  0  0  0
   -2.3279   -5.0376   -4.2848 O   0  0  0  0  0  0  0  0  0  0  0  0
   -3.6384    4.0448   -2.9641 C   0  0  0  0  0  0  0  0  0  0  0  0
   -4.3945    2.9198   -2.5555 C   0  0  0  0  0  0  0  0  0  0  0  0
   -4.3147    5.2639   -3.2064 C   0  0  0  0  0  0  0  0  0  0  0  0
   -5.7903    3.0083   -2.4019 C   0  0  0  0  0  0  0  0  0  0  0  0
   -5.7111    5.3528   -3.0506 C   0  0  0  0  0  0  0  0  0  0  0  0
   -6.4514    4.2233   -2.6557 C   0  0  0  0  0  0  0  0  0  0  0  0
   -7.7961    4.3036   -2.5192 O   0  0  0  0  0  0  0  0  0  0  0  0
   -3.4501   -3.3124   -2.4127 O   0  0  0  0  0  0  0  0  0  0  0  0
    1.3036   -0.1605   -3.1628 H   0  0  0  0  0  0  0  0  0  0  0  0
   -0.0045    0.2514   -2.0613 H   0  0  0  0  0  0  0  0  0  0  0  0
   -1.4233    0.9775   -3.9551 H   0  0  0  0  0  0  0  0  0  0  0  0
   -0.1591    0.5221   -5.1131 H   0  0  0  0  0  0  0  0  0  0  0  0
    0.1981    2.5280   -3.0001 H   0  0  0  0  0  0  0  0  0  0  0  0
    1.0446   -2.1105   -4.7137 H   0  0  0  0  0  0  0  0  0  0  0  0
   -2.0316   -1.1878   -1.9746 H   0  0  0  0  0  0  0  0  0  0  0  0
    0.3126    4.2311   -4.5312 H   0  0  0  0  0  0  0  0  0  0  0  0
   -0.0626   -4.1841   -5.2493 H   0  0  0  0  0  0  0  0  0  0  0  0
   -2.3601    2.8226   -4.9993 H   0  0  0  0  0  0  0  0  0  0  0  0
   -2.0233    4.5365   -5.2179 H   0  0  0  0  0  0  0  0  0  0  0  0
   -0.1690    3.9911   -6.9171 H   0  0  0  0  0  0  0  0  0  0  0  0
    1.1297    2.8766   -6.4638 H   0  0  0  0  0  0  0  0  0  0  0  0
   -0.5145    2.2670   -6.7222 H   0  0  0  0  0  0  0  0  0  0  0  0
   -1.6811    4.8658   -2.8104 H   0  0  0  0  0  0  0  0  0  0  0  0
   -1.7780    3.1462   -2.4989 H   0  0  0  0  0  0  0  0  0  0  0  0
   -2.9073   -4.7992   -5.0397 H   0  0  0  0  0  0  0  0  0  0  0  0
   -3.9333    2.0262   -2.3678 H   0  0  0  0  0  0  0  0  0  0  0  0
   -3.7935    6.0957   -3.4945 H   0  0  0  0  0  0  0  0  0  0  0  0
   -6.3223    2.1873   -2.1061 H   0  0  0  0  0  0  0  0  0  0  0  0
   -6.1869    6.2402   -3.2247 H   0  0  0  0  0  0  0  0  0  0  0  0
   -8.1540    4.0907   -3.4073 H   0  0  0  0  0  0  0  0  0  0  0  0
   -4.1272   -2.9250   -3.0082 H   0  0  0  0  0  0  0  0  0  0  0  0
  1  2  1  0  0  0  0 
  1  3  1  0  0  0  0 
  2  4  1  0  0  0  0 
  3  5  2  0  0  0  0 
  3  6  1  0  0  0  0 
  7  4  1  0  0  0  0 
  5  8  1  0  0  0  0 
  6  9  2  0  0  0  0 
  7 10  1  0  0  0  0 
  7 11  1  0  0  0  0 
  8 12  2  0  0  0  0 
  9 12  1  0  0  0  0 
 10 13  1  0  0  0  0 
 12 14  1  0  0  0  0 
 13 15  1  0  0  0  0 
 15 16  2  0  0  0  0 
 15 17  1  0  0  0  0 
 16 18  1  0  0  0  0 
 17 19  2  0  0  0  0 
 18 20  2  0  0  0  0 
 19 20  1  0  0  0  0 
 20 21  1  0  0  0  0 
  9 22  1  0  0  0  0 
  1 23  1  0  0  0  0 
  1 24  1  0  0  0  0 
  2 25  1  0  0  0  0 
  2 26  1  0  0  0  0 
  4 27  1  0  0  0  0 
  5 28  1  0  0  0  0 
  6 29  1  0  0  0  0 
  7 30  1  0  0  0  0 
  8 31  1  0  0  0  0 
 10 32  1  0  0  0  0 
 10 33  1  0  0  0  0 
 11 34  1  0  0  0  0 
 11 35  1  0  0  0  0 
 11 36  1  0  0  0  0 
 13 37  1  0  0  0  0 
 13 38  1  0  0  0  0 
 14 39  1  0  0  0  0 
 16 40  1  0  0  0  0 
 17 41  1  0  0  0  0 
 18 42  1  0  0  0  0 
 19 43  1  0  0  0  0 
 21 44  1  0  0  0  0 
 22 45  1  0  0  0  0 
M  END
> <cdk:Title>
levdobutamine

> <Conformer>
10

> <SuperDrugID>
SD000004

$$$$
