acecarbromal
  CDK     0628171801

 30 29  0  0  0  0  0  0  0  0999 V2000
    2.1921   -0.8156   -1.0355 C   0  0  2  0  0  0  0  0  0  0  0  0
    1.6003   -0.5172   -2.3828 C   0  0  0  0  0  0  0  0  0  0  0  0
    1.3841   -1.9982   -0.3909 C   0  0  1  0  0  0  0  0  0  0  0  0
    2.2079    0.4528   -0.1130 C   0  0  2  0  0  0  0  0  0  0  0  0
    4.0384   -1.4020   -1.2405 Br  0  0  0  0  0  0  0  0  0  0  0  0
    0.3734    0.0838   -2.4955 N   0  0  0  0  0  0  0  0  0  0  0  0
    2.2421   -0.8258   -3.4149 O   0  0  0  0  0  0  0  0  0  0  0  0
    1.8697   -2.5118    0.9928 C   0  0  0  0  0  0  0  0  0  0  0  0
    2.8631    1.7271   -0.7031 C   0  0  0  0  0  0  0  0  0  0  0  0
   -0.2740    0.4466   -3.6422 C   0  0  0  0  0  0  0  0  0  0  0  0
   -1.4802    1.0646   -3.4993 N   0  0  0  0  0  0  0  0  0  0  0  0
    0.2147    0.2316   -4.7774 O   0  0  0  0  0  0  0  0  0  0  0  0
   -2.3089    1.5142   -4.4898 C   0  0  0  0  0  0  0  0  0  0  0  0
   -3.5993    2.1364   -4.1476 C   0  0  0  0  0  0  0  0  0  0  0  0
   -2.0231    1.4245   -5.7080 O   0  0  0  0  0  0  0  0  0  0  0  0
    0.3356   -1.7055   -0.2758 H   0  0  0  0  0  0  0  0  0  0  0  0
    1.4046   -2.8518   -1.0761 H   0  0  0  0  0  0  0  0  0  0  0  0
    2.7495    0.2132    0.8052 H   0  0  0  0  0  0  0  0  0  0  0  0
    1.1845    0.7084    0.1738 H   0  0  0  0  0  0  0  0  0  0  0  0
   -0.0870    0.2876   -1.6674 H   0  0  0  0  0  0  0  0  0  0  0  0
    2.9371   -2.7363    0.9824 H   0  0  0  0  0  0  0  0  0  0  0  0
    1.6708   -1.7769    1.7754 H   0  0  0  0  0  0  0  0  0  0  0  0
    1.3373   -3.4306    1.2487 H   0  0  0  0  0  0  0  0  0  0  0  0
    2.9295    2.4982    0.0667 H   0  0  0  0  0  0  0  0  0  0  0  0
    2.2658    2.1202   -1.5265 H   0  0  0  0  0  0  0  0  0  0  0  0
    3.8715    1.5176   -1.0614 H   0  0  0  0  0  0  0  0  0  0  0  0
   -1.7883    1.2009   -2.5892 H   0  0  0  0  0  0  0  0  0  0  0  0
   -4.4105    1.6111   -4.6597 H   0  0  0  0  0  0  0  0  0  0  0  0
   -3.7855    2.0969   -3.0721 H   0  0  0  0  0  0  0  0  0  0  0  0
   -3.5956    3.1820   -4.4649 H   0  0  0  0  0  0  0  0  0  0  0  0
  1  2  1  0  0  0  0 
  1  3  1  0  0  0  0 
  1  4  1  0  0  0  0 
  1  5  1  0  0  0  0 
  2  6  1  0  0  0  0 
  2  7  2  0  0  0  0 
  3  8  1  0  0  0  0 
  4  9  1  0  0  0  0 
  6 10  1  0  0  0  0 
 10 11  1  0  0  0  0 
 10 12  2  0  0  0  0 
 11 13  1  0  0  0  0 
 13 14  1  0  0  0  0 
 13 15  2  0  0  0  0 
  3 16  1  0  0  0  0 
  3 17  1  0  0  0  0 
  4 18  1  0  0  0  0 
  4 19  1  0  0  0  0 
  6 20  1  0  0  0  0 
  8 21  1  0  0  0  0 
  8 22  1  0  0  0  0 
  8 23  1  0  0  0  0 
  9 24  1  0  0  0  0 
  9 25  1  0  0  0  0 
  9 26  1  0  0  0  0 
 11 27  1  0  0  0  0 
 14 28  1  0  0  0  0 
 14 29  1  0  0  0  0 
 14 30  1  0  0  0  0 
M  END
> <cdk:Title>
acecarbromal

> <Conformer>
1

> <SuperDrugID>
SD000019

$$$$
acecarbromal
  CDK     0628171801

 30 29  0  0  0  0  0  0  0  0999 V2000
    2.0415   -0.6885   -0.8509 C   0  0  2  0  0  0  0  0  0  0  0  0
    1.1739   -0.0433   -1.8911 C   0  0  0  0  0  0  0  0  0  0  0  0
    1.3942   -2.0547   -0.4365 C   0  0  1  0  0  0  0  0  0  0  0  0
    2.3854    0.2419    0.3699 C   0  0  1  0  0  0  0  0  0  0  0  0
    3.7445   -1.0275   -1.7239 Br  0  0  0  0  0  0  0  0  0  0  0  0
    1.0567   -0.6244   -3.1258 N   0  0  0  0  0  0  0  0  0  0  0  0
    0.5545    1.0188   -1.6400 O   0  0  0  0  0  0  0  0  0  0  0  0
    2.1658   -2.9016    0.6035 C   0  0  0  0  0  0  0  0  0  0  0  0
    1.2505    0.5710    1.3749 C   0  0  0  0  0  0  0  0  0  0  0  0
    0.3028   -0.2144   -4.1807 C   0  0  0  0  0  0  0  0  0  0  0  0
    0.4628   -0.9214   -5.3327 N   0  0  0  0  0  0  0  0  0  0  0  0
   -0.4843    0.7605   -4.1007 O   0  0  0  0  0  0  0  0  0  0  0  0
   -0.1800   -0.7299   -6.5197 C   0  0  0  0  0  0  0  0  0  0  0  0
    0.1918   -1.5690   -7.6708 C   0  0  0  0  0  0  0  0  0  0  0  0
   -1.0734    0.1401   -6.6670 O   0  0  0  0  0  0  0  0  0  0  0  0
    0.3931   -1.8690   -0.0380 H   0  0  0  0  0  0  0  0  0  0  0  0
    1.2753   -2.6778   -1.3273 H   0  0  0  0  0  0  0  0  0  0  0  0
    3.2006   -0.2093    0.9420 H   0  0  0  0  0  0  0  0  0  0  0  0
    2.7656    1.1912   -0.0150 H   0  0  0  0  0  0  0  0  0  0  0  0
    1.5872   -1.4226   -3.2750 H   0  0  0  0  0  0  0  0  0  0  0  0
    3.1730   -3.1259    0.2515 H   0  0  0  0  0  0  0  0  0  0  0  0
    2.2310   -2.3819    1.5592 H   0  0  0  0  0  0  0  0  0  0  0  0
    1.6384   -3.8436    0.7652 H   0  0  0  0  0  0  0  0  0  0  0  0
    1.6143    1.2922    2.1107 H   0  0  0  0  0  0  0  0  0  0  0  0
    0.9251   -0.3221    1.9099 H   0  0  0  0  0  0  0  0  0  0  0  0
    0.3912    1.0115    0.8723 H   0  0  0  0  0  0  0  0  0  0  0  0
    1.1157   -1.6398   -5.3051 H   0  0  0  0  0  0  0  0  0  0  0  0
   -0.4070   -1.3094   -8.5462 H   0  0  0  0  0  0  0  0  0  0  0  0
    1.2464   -1.4170   -7.9152 H   0  0  0  0  0  0  0  0  0  0  0  0
    0.0254   -2.6223   -7.4331 H   0  0  0  0  0  0  0  0  0  0  0  0
  1  2  1  0  0  0  0 
  1  3  1  0  0  0  0 
  1  4  1  0  0  0  0 
  1  5  1  0  0  0  0 
  2  6  1  0  0  0  0 
  2  7  2  0  0  0  0 
  3  8  1  0  0  0  0 
  4  9  1  0  0  0  0 
  6 10  1  0  0  0  0 
 10 11  1  0  0  0  0 
 10 12  2  0  0  0  0 
 11 13  1  0  0  0  0 
 13 14  1  0  0  0  0 
 13 15  2  0  0  0  0 
  3 16  1  0  0  0  0 
  3 17  1  0  0  0  0 
  4 18  1  0  0  0  0 
  4 19  1  0  0  0  0 
  6 20  1  0  0  0  0 
  8 21  1  0  0  0  0 
  8 22  1  0  0  0  0 
  8 23  1  0  0  0  0 
  9 24  1  0  0  0  0 
  9 25  1  0  0  0  0 
  9 26  1  0  0  0  0 
 11 27  1  0  0  0  0 
 14 28  1  0  0  0  0 
 14 29  1  0  0  0  0 
 14 30  1  0  0  0  0 
M  END
> <cdk:Title>
acecarbromal

> <Conformer>
2

> <SuperDrugID>
SD000019

$$$$
acecarbromal
  CDK     0628171801

 30 29  0  0  0  0  0  0  0  0999 V2000
    2.1211   -0.8328   -0.9135 C   0  0  2  0  0  0  0  0  0  0  0  0
    1.1174   -0.3506   -1.9172 C   0  0  0  0  0  0  0  0  0  0  0  0
    1.6686   -2.2702   -0.4685 C   0  0  1  0  0  0  0  0  0  0  0  0
    2.2650    0.1426    0.3131 C   0  0  2  0  0  0  0  0  0  0  0  0
    3.8608   -0.9740   -1.7695 Br  0  0  0  0  0  0  0  0  0  0  0  0
    1.2320   -0.6824   -3.2424 N   0  0  0  0  0  0  0  0  0  0  0  0
    0.1261    0.3071   -1.5140 O   0  0  0  0  0  0  0  0  0  0  0  0
    2.5816   -3.0264    0.5301 C   0  0  0  0  0  0  0  0  0  0  0  0
    2.6925    1.5950   -0.0201 C   0  0  0  0  0  0  0  0  0  0  0  0
    0.3990   -0.3370   -4.2648 C   0  0  0  0  0  0  0  0  0  0  0  0
    0.7198   -0.7746   -5.5155 N   0  0  0  0  0  0  0  0  0  0  0  0
   -0.6222    0.3651   -4.0665 O   0  0  0  0  0  0  0  0  0  0  0  0
    0.0307   -0.5376   -6.6723 C   0  0  0  0  0  0  0  0  0  0  0  0
    0.5375   -1.0949   -7.9354 C   0  0  0  0  0  0  0  0  0  0  0  0
   -1.0212    0.1445   -6.6999 O   0  0  0  0  0  0  0  0  0  0  0  0
    0.6700   -2.2145   -0.0215 H   0  0  0  0  0  0  0  0  0  0  0  0
    1.5865   -2.9025   -1.3584 H   0  0  0  0  0  0  0  0  0  0  0  0
    3.0113   -0.2511    1.0052 H   0  0  0  0  0  0  0  0  0  0  0  0
    1.3158    0.1848    0.8556 H   0  0  0  0  0  0  0  0  0  0  0  0
    1.9978   -1.2243   -3.4839 H   0  0  0  0  0  0  0  0  0  0  0  0
    3.6028   -3.0975    0.1544 H   0  0  0  0  0  0  0  0  0  0  0  0
    2.5963   -2.5324    1.5019 H   0  0  0  0  0  0  0  0  0  0  0  0
    2.2028   -4.0400    0.6741 H   0  0  0  0  0  0  0  0  0  0  0  0
    2.6925    2.1975    0.8907 H   0  0  0  0  0  0  0  0  0  0  0  0
    2.0067    2.0541   -0.7324 H   0  0  0  0  0  0  0  0  0  0  0  0
    3.6999    1.6133   -0.4366 H   0  0  0  0  0  0  0  0  0  0  0  0
    1.5254   -1.3114   -5.5950 H   0  0  0  0  0  0  0  0  0  0  0  0
   -0.1116   -0.8302   -8.7735 H   0  0  0  0  0  0  0  0  0  0  0  0
    1.5358   -0.7017   -8.1335 H   0  0  0  0  0  0  0  0  0  0  0  0
    0.5877   -2.1829   -7.8691 H   0  0  0  0  0  0  0  0  0  0  0  0
  1  2  1  0  0  0  0 
  1  3  1  0  0  0  0 
  1  4  1  0  0  0  0 
  1  5  1  0  0  0  0 
  2  6  1  0  0  0  0 
  2  7  2  0  0  0  0 
  3  8  1  0  0  0  0 
  4  9  1  0  0  0  0 
  6 10  1  0  0  0  0 
 10 11  1  0  0  0  0 
 10 12  2  0  0  0  0 
 11 13  1  0  0  0  0 
 13 14  1  0  0  0  0 
 13 15  2  0  0  0  0 
  3 16  1  0  0  0  0 
  3 17  1  0  0  0  0 
  4 18  1  0  0  0  0 
  4 19  1  0  0  0  0 
  6 20  1  0  0  0  0 
  8 21  1  0  0  0  0 
  8 22  1  0  0  0  0 
  8 23  1  0  0  0  0 
  9 24  1  0  0  0  0 
  9 25  1  0  0  0  0 
  9 26  1  0  0  0  0 
 11 27  1  0  0  0  0 
 14 28  1  0  0  0  0 
 14 29  1  0  0  0  0 
 14 30  1  0  0  0  0 
M  END
> <cdk:Title>
acecarbromal

> <Conformer>
3

> <SuperDrugID>
SD000019

$$$$
acecarbromal
  CDK     0628171801

 30 29  0  0  0  0  0  0  0  0999 V2000
    2.2845   -0.8863   -1.0875 C   0  0  2  0  0  0  0  0  0  0  0  0
    1.7050   -0.5010   -2.4160 C   0  0  0  0  0  0  0  0  0  0  0  0
    1.7155   -2.2901   -0.6634 C   0  0  1  0  0  0  0  0  0  0  0  0
    1.9969    0.2209   -0.0133 C   0  0  2  0  0  0  0  0  0  0  0  0
    4.2149   -1.0769   -1.2456 Br  0  0  0  0  0  0  0  0  0  0  0  0
    0.3481   -0.4342   -2.5721 N   0  0  0  0  0  0  0  0  0  0  0  0
    2.4632   -0.2525   -3.3834 O   0  0  0  0  0  0  0  0  0  0  0  0
    2.2022   -2.8826    0.6855 C   0  0  0  0  0  0  0  0  0  0  0  0
    2.4340    1.6631   -0.3865 C   0  0  0  0  0  0  0  0  0  0  0  0
   -0.3498   -0.1150   -3.7042 C   0  0  0  0  0  0  0  0  0  0  0  0
   -1.7034   -0.2038   -3.8026 N   0  0  0  0  0  0  0  0  0  0  0  0
    0.2236    0.2883   -4.7434 O   0  0  0  0  0  0  0  0  0  0  0  0
   -2.5900   -0.7043   -2.8966 C   0  0  0  0  0  0  0  0  0  0  0  0
   -4.0234   -0.6296   -3.2221 C   0  0  0  0  0  0  0  0  0  0  0  0
   -2.2426   -1.2336   -1.8136 O   0  0  0  0  0  0  0  0  0  0  0  0
    0.6240   -2.2441   -0.6030 H   0  0  0  0  0  0  0  0  0  0  0  0
    1.9603   -3.0144   -1.4467 H   0  0  0  0  0  0  0  0  0  0  0  0
    2.5183   -0.0391    0.9123 H   0  0  0  0  0  0  0  0  0  0  0  0
    0.9268    0.2442    0.2151 H   0  0  0  0  0  0  0  0  0  0  0  0
   -0.1767   -0.6547   -1.7899 H   0  0  0  0  0  0  0  0  0  0  0  0
    3.2903   -2.8808    0.7548 H   0  0  0  0  0  0  0  0  0  0  0  0
    1.7910   -2.3177    1.5242 H   0  0  0  0  0  0  0  0  0  0  0  0
    1.8587   -3.9162    0.7749 H   0  0  0  0  0  0  0  0  0  0  0  0
    2.3202    2.3194    0.4812 H   0  0  0  0  0  0  0  0  0  0  0  0
    1.8141    2.0564   -1.1957 H   0  0  0  0  0  0  0  0  0  0  0  0
    3.4808    1.6894   -0.6983 H   0  0  0  0  0  0  0  0  0  0  0  0
   -2.0867    0.1141   -4.6362 H   0  0  0  0  0  0  0  0  0  0  0  0
   -4.6156   -1.2400   -2.5369 H   0  0  0  0  0  0  0  0  0  0  0  0
   -4.3543    0.4079   -3.1439 H   0  0  0  0  0  0  0  0  0  0  0  0
   -4.1994   -0.9827   -4.2403 H   0  0  0  0  0  0  0  0  0  0  0  0
  1  2  1  0  0  0  0 
  1  3  1  0  0  0  0 
  1  4  1  0  0  0  0 
  1  5  1  0  0  0  0 
  2  6  1  0  0  0  0 
  2  7  2  0  0  0  0 
  3  8  1  0  0  0  0 
  4  9  1  0  0  0  0 
  6 10  1  0  0  0  0 
 10 11  1  0  0  0  0 
 10 12  2  0  0  0  0 
 11 13  1  0  0  0  0 
 13 14  1  0  0  0  0 
 13 15  2  0  0  0  0 
  3 16  1  0  0  0  0 
  3 17  1  0  0  0  0 
  4 18  1  0  0  0  0 
  4 19  1  0  0  0  0 
  6 20  1  0  0  0  0 
  8 21  1  0  0  0  0 
  8 22  1  0  0  0  0 
  8 23  1  0  0  0  0 
  9 24  1  0  0  0  0 
  9 25  1  0  0  0  0 
  9 26  1  0  0  0  0 
 11 27  1  0  0  0  0 
 14 28  1  0  0  0  0 
 14 29  1  0  0  0  0 
 14 30  1  0  0  0  0 
M  END
> <cdk:Title>
acecarbromal

> <Conformer>
4

> <SuperDrugID>
SD000019

$$$$
acecarbromal
  CDK     0628171801

 30 29  0  0  0  0  0  0  0  0999 V2000
    2.1086   -0.8913   -0.9252 C   0  0  2  0  0  0  0  0  0  0  0  0
    1.0438   -0.5181   -1.9131 C   0  0  0  0  0  0  0  0  0  0  0  0
    1.7362   -2.2942   -0.3229 C   0  0  1  0  0  0  0  0  0  0  0  0
    2.2249    0.1994    0.1965 C   0  0  2  0  0  0  0  0  0  0  0  0
    3.8482   -1.0405   -1.7820 Br  0  0  0  0  0  0  0  0  0  0  0  0
    1.3033   -0.4228   -3.2513 N   0  0  0  0  0  0  0  0  0  0  0  0
   -0.1120   -0.3106   -1.4724 O   0  0  0  0  0  0  0  0  0  0  0  0
    2.7452   -2.9426    0.6597 C   0  0  0  0  0  0  0  0  0  0  0  0
    2.4343    1.6566   -0.2852 C   0  0  0  0  0  0  0  0  0  0  0  0
    0.4622   -0.0842   -4.2701 C   0  0  0  0  0  0  0  0  0  0  0  0
   -0.8511    0.2718   -4.1130 N   0  0  0  0  0  0  0  0  0  0  0  0
    0.9928   -0.1264   -5.4040 O   0  0  0  0  0  0  0  0  0  0  0  0
   -1.7496    0.5628   -5.0990 C   0  0  0  0  0  0  0  0  0  0  0  0
   -3.1317    0.9149   -4.7310 C   0  0  0  0  0  0  0  0  0  0  0  0
   -1.4488    0.5211   -6.3155 O   0  0  0  0  0  0  0  0  0  0  0  0
    0.7794   -2.2165    0.2046 H   0  0  0  0  0  0  0  0  0  0  0  0
    1.5950   -3.0056   -1.1439 H   0  0  0  0  0  0  0  0  0  0  0  0
    3.0695   -0.0409    0.8455 H   0  0  0  0  0  0  0  0  0  0  0  0
    1.3266    0.1785    0.8220 H   0  0  0  0  0  0  0  0  0  0  0  0
    2.2083   -0.6367   -3.5228 H   0  0  0  0  0  0  0  0  0  0  0  0
    3.6849   -3.1652    0.1518 H   0  0  0  0  0  0  0  0  0  0  0  0
    2.9443   -2.2947    1.5140 H   0  0  0  0  0  0  0  0  0  0  0  0
    2.3326   -3.8821    1.0362 H   0  0  0  0  0  0  0  0  0  0  0  0
    2.5701    2.3080    0.5821 H   0  0  0  0  0  0  0  0  0  0  0  0
    1.5673    2.0083   -0.8483 H   0  0  0  0  0  0  0  0  0  0  0  0
    3.3232    1.7306   -0.9142 H   0  0  0  0  0  0  0  0  0  0  0  0
   -1.1878    0.3168   -3.2069 H   0  0  0  0  0  0  0  0  0  0  0  0
   -3.7624    1.0232   -5.6173 H   0  0  0  0  0  0  0  0  0  0  0  0
   -3.5613    0.1301   -4.1044 H   0  0  0  0  0  0  0  0  0  0  0  0
   -3.1393    1.8591   -4.1822 H   0  0  0  0  0  0  0  0  0  0  0  0
  1  2  1  0  0  0  0 
  1  3  1  0  0  0  0 
  1  4  1  0  0  0  0 
  1  5  1  0  0  0  0 
  2  6  1  0  0  0  0 
  2  7  2  0  0  0  0 
  3  8  1  0  0  0  0 
  4  9  1  0  0  0  0 
  6 10  1  0  0  0  0 
 10 11  1  0  0  0  0 
 10 12  2  0  0  0  0 
 11 13  1  0  0  0  0 
 13 14  1  0  0  0  0 
 13 15  2  0  0  0  0 
  3 16  1  0  0  0  0 
  3 17  1  0  0  0  0 
  4 18  1  0  0  0  0 
  4 19  1  0  0  0  0 
  6 20  1  0  0  0  0 
  8 21  1  0  0  0  0 
  8 22  1  0  0  0  0 
  8 23  1  0  0  0  0 
  9 24  1  0  0  0  0 
  9 25  1  0  0  0  0 
  9 26  1  0  0  0  0 
 11 27  1  0  0  0  0 
 14 28  1  0  0  0  0 
 14 29  1  0  0  0  0 
 14 30  1  0  0  0  0 
M  END
> <cdk:Title>
acecarbromal

> <Conformer>
5

> <SuperDrugID>
SD000019

$$$$
acecarbromal
  CDK     0628171801

 30 29  0  0  0  0  0  0  0  0999 V2000
    2.2860   -0.9102   -1.1014 C   0  0  2  0  0  0  0  0  0  0  0  0
    1.7032   -0.5987   -2.4511 C   0  0  0  0  0  0  0  0  0  0  0  0
    1.6500   -2.2424   -0.5592 C   0  0  1  0  0  0  0  0  0  0  0  0
    2.0516    0.2864   -0.1095 C   0  0  2  0  0  0  0  0  0  0  0  0
    4.2010   -1.2050   -1.2514 Br  0  0  0  0  0  0  0  0  0  0  0  0
    0.3730   -0.2975   -2.5254 N   0  0  0  0  0  0  0  0  0  0  0  0
    2.4276   -0.5737   -3.4750 O   0  0  0  0  0  0  0  0  0  0  0  0
    2.0600   -2.6992    0.8679 C   0  0  0  0  0  0  0  0  0  0  0  0
    2.5628    1.6776   -0.5635 C   0  0  0  0  0  0  0  0  0  0  0  0
   -0.3725    0.1275   -3.5810 C   0  0  0  0  0  0  0  0  0  0  0  0
    0.0944    0.2724   -4.8583 N   0  0  0  0  0  0  0  0  0  0  0  0
   -1.5555    0.4147   -3.2843 O   0  0  0  0  0  0  0  0  0  0  0  0
   -0.5675    0.8479   -5.9075 C   0  0  0  0  0  0  0  0  0  0  0  0
    0.0907    0.9209   -7.2218 C   0  0  0  0  0  0  0  0  0  0  0  0
   -1.7167    1.3380   -5.7907 O   0  0  0  0  0  0  0  0  0  0  0  0
    0.5602   -2.1455   -0.5513 H   0  0  0  0  0  0  0  0  0  0  0  0
    1.8950   -3.0554   -1.2509 H   0  0  0  0  0  0  0  0  0  0  0  0
    2.5459    0.0646    0.8384 H   0  0  0  0  0  0  0  0  0  0  0  0
    0.9817    0.3764    0.1045 H   0  0  0  0  0  0  0  0  0  0  0  0
   -0.1100   -0.3709   -1.6887 H   0  0  0  0  0  0  0  0  0  0  0  0
    3.1438   -2.7806    0.9623 H   0  0  0  0  0  0  0  0  0  0  0  0
    1.6874   -1.9994    1.6184 H   0  0  0  0  0  0  0  0  0  0  0  0
    1.6240   -3.6784    1.0813 H   0  0  0  0  0  0  0  0  0  0  0  0
    2.2976    2.4313    0.1819 H   0  0  0  0  0  0  0  0  0  0  0  0
    2.1117    1.9662   -1.5136 H   0  0  0  0  0  0  0  0  0  0  0  0
    3.6477    1.6741   -0.6707 H   0  0  0  0  0  0  0  0  0  0  0  0
    0.9911   -0.0501   -5.0356 H   0  0  0  0  0  0  0  0  0  0  0  0
   -0.5084    1.4878   -7.9381 H   0  0  0  0  0  0  0  0  0  0  0  0
    1.0581    1.4137   -7.1220 H   0  0  0  0  0  0  0  0  0  0  0  0
    0.2396   -0.0862   -7.6122 H   0  0  0  0  0  0  0  0  0  0  0  0
  1  2  1  0  0  0  0 
  1  3  1  0  0  0  0 
  1  4  1  0  0  0  0 
  1  5  1  0  0  0  0 
  2  6  1  0  0  0  0 
  2  7  2  0  0  0  0 
  3  8  1  0  0  0  0 
  4  9  1  0  0  0  0 
  6 10  1  0  0  0  0 
 10 11  1  0  0  0  0 
 10 12  2  0  0  0  0 
 11 13  1  0  0  0  0 
 13 14  1  0  0  0  0 
 13 15  2  0  0  0  0 
  3 16  1  0  0  0  0 
  3 17  1  0  0  0  0 
  4 18  1  0  0  0  0 
  4 19  1  0  0  0  0 
  6 20  1  0  0  0  0 
  8 21  1  0  0  0  0 
  8 22  1  0  0  0  0 
  8 23  1  0  0  0  0 
  9 24  1  0  0  0  0 
  9 25  1  0  0  0  0 
  9 26  1  0  0  0  0 
 11 27  1  0  0  0  0 
 14 28  1  0  0  0  0 
 14 29  1  0  0  0  0 
 14 30  1  0  0  0  0 
M  END
> <cdk:Title>
acecarbromal

> <Conformer>
6

> <SuperDrugID>
SD000019

$$$$
acecarbromal
  CDK     0628171801

 30 29  0  0  0  0  0  0  0  0999 V2000
    2.1039   -0.9383   -0.9329 C   0  0  2  0  0  0  0  0  0  0  0  0
    1.0209   -0.6714   -1.9342 C   0  0  0  0  0  0  0  0  0  0  0  0
    1.8928   -2.3865   -0.3577 C   0  0  1  0  0  0  0  0  0  0  0  0
    2.0700    0.1668    0.1771 C   0  0  2  0  0  0  0  0  0  0  0  0
    3.8636   -0.9152   -1.7629 Br  0  0  0  0  0  0  0  0  0  0  0  0
    1.3138   -0.2228   -3.1873 N   0  0  0  0  0  0  0  0  0  0  0  0
   -0.1746   -0.8319   -1.5825 O   0  0  0  0  0  0  0  0  0  0  0  0
    2.9276   -2.9125    0.6693 C   0  0  0  0  0  0  0  0  0  0  0  0
    2.1910    1.6312   -0.3221 C   0  0  0  0  0  0  0  0  0  0  0  0
    0.4603   -0.0572   -4.2370 C   0  0  0  0  0  0  0  0  0  0  0  0
    0.8373    0.4745   -5.4282 N   0  0  0  0  0  0  0  0  0  0  0  0
   -0.7365   -0.4205   -4.1742 O   0  0  0  0  0  0  0  0  0  0  0  0
    2.0327    1.0303   -5.7718 C   0  0  0  0  0  0  0  0  0  0  0  0
    2.1944    1.4879   -7.1598 C   0  0  0  0  0  0  0  0  0  0  0  0
    2.9852    1.1746   -4.9702 O   0  0  0  0  0  0  0  0  0  0  0  0
    0.9116   -2.4453    0.1240 H   0  0  0  0  0  0  0  0  0  0  0  0
    1.8814   -3.0945   -1.1930 H   0  0  0  0  0  0  0  0  0  0  0  0
    2.8944    0.0007    0.8733 H   0  0  0  0  0  0  0  0  0  0  0  0
    1.1392    0.0805    0.7451 H   0  0  0  0  0  0  0  0  0  0  0  0
    2.2390    0.0029   -3.3501 H   0  0  0  0  0  0  0  0  0  0  0  0
    3.9161   -3.0144    0.2185 H   0  0  0  0  0  0  0  0  0  0  0  0
    2.9929   -2.2517    1.5340 H   0  0  0  0  0  0  0  0  0  0  0  0
    2.6147   -3.8987    1.0188 H   0  0  0  0  0  0  0  0  0  0  0  0
    2.1694    2.3110    0.5322 H   0  0  0  0  0  0  0  0  0  0  0  0
    1.3630    1.8925   -0.9842 H   0  0  0  0  0  0  0  0  0  0  0  0
    3.1302    1.7818   -0.8574 H   0  0  0  0  0  0  0  0  0  0  0  0
    0.1601    0.4684   -6.1232 H   0  0  0  0  0  0  0  0  0  0  0  0
    3.1247    2.0444   -7.2907 H   0  0  0  0  0  0  0  0  0  0  0  0
    2.2057    0.6225   -7.8239 H   0  0  0  0  0  0  0  0  0  0  0  0
    1.3589    2.1318   -7.4360 H   0  0  0  0  0  0  0  0  0  0  0  0
  1  2  1  0  0  0  0 
  1  3  1  0  0  0  0 
  1  4  1  0  0  0  0 
  1  5  1  0  0  0  0 
  2  6  1  0  0  0  0 
  2  7  2  0  0  0  0 
  3  8  1  0  0  0  0 
  4  9  1  0  0  0  0 
  6 10  1  0  0  0  0 
 10 11  1  0  0  0  0 
 10 12  2  0  0  0  0 
 11 13  1  0  0  0  0 
 13 14  1  0  0  0  0 
 13 15  2  0  0  0  0 
  3 16  1  0  0  0  0 
  3 17  1  0  0  0  0 
  4 18  1  0  0  0  0 
  4 19  1  0  0  0  0 
  6 20  1  0  0  0  0 
  8 21  1  0  0  0  0 
  8 22  1  0  0  0  0 
  8 23  1  0  0  0  0 
  9 24  1  0  0  0  0 
  9 25  1  0  0  0  0 
  9 26  1  0  0  0  0 
 11 27  1  0  0  0  0 
 14 28  1  0  0  0  0 
 14 29  1  0  0  0  0 
 14 30  1  0  0  0  0 
M  END
> <cdk:Title>
acecarbromal

> <Conformer>
7

> <SuperDrugID>
SD000019

$$$$
acecarbromal
  CDK     0628171801

 30 29  0  0  0  0  0  0  0  0999 V2000
    2.0085   -0.7648   -0.8517 C   0  0  2  0  0  0  0  0  0  0  0  0
    0.9886   -0.2815   -1.8427 C   0  0  0  0  0  0  0  0  0  0  0  0
    1.5027   -2.1169   -0.2333 C   0  0  1  0  0  0  0  0  0  0  0  0
    2.3484    0.3531    0.2000 C   0  0  1  0  0  0  0  0  0  0  0  0
    3.6987   -1.1384   -1.7437 Br  0  0  0  0  0  0  0  0  0  0  0  0
    1.2493   -0.2480   -3.1868 N   0  0  0  0  0  0  0  0  0  0  0  0
   -0.1391    0.0551   -1.4115 O   0  0  0  0  0  0  0  0  0  0  0  0
    2.4273   -2.8012    0.8049 C   0  0  0  0  0  0  0  0  0  0  0  0
    1.2663    0.7173    1.2493 C   0  0  0  0  0  0  0  0  0  0  0  0
    0.4535    0.1673   -4.2117 C   0  0  0  0  0  0  0  0  0  0  0  0
   -0.7961    0.6972   -4.0481 N   0  0  0  0  0  0  0  0  0  0  0  0
    0.9544    0.0284   -5.3516 O   0  0  0  0  0  0  0  0  0  0  0  0
   -1.6672    1.0859   -5.0246 C   0  0  0  0  0  0  0  0  0  0  0  0
   -2.9757    1.6253   -4.6166 C   0  0  0  0  0  0  0  0  0  0  0  0
   -1.4011    0.9998   -6.2466 O   0  0  0  0  0  0  0  0  0  0  0  0
    0.5308   -1.9627    0.2440 H   0  0  0  0  0  0  0  0  0  0  0  0
    1.3431   -2.8347   -1.0451 H   0  0  0  0  0  0  0  0  0  0  0  0
    3.2379    0.0543    0.7614 H   0  0  0  0  0  0  0  0  0  0  0  0
    2.6150    1.2709   -0.3320 H   0  0  0  0  0  0  0  0  0  0  0  0
    2.1224   -0.5709   -3.4571 H   0  0  0  0  0  0  0  0  0  0  0  0
    3.3762   -3.0913    0.3524 H   0  0  0  0  0  0  0  0  0  0  0  0
    2.6246   -2.1431    1.6508 H   0  0  0  0  0  0  0  0  0  0  0  0
    1.9426   -3.7033    1.1823 H   0  0  0  0  0  0  0  0  0  0  0  0
    1.6752    1.4449    1.9537 H   0  0  0  0  0  0  0  0  0  0  0  0
    0.9571   -0.1620    1.8150 H   0  0  0  0  0  0  0  0  0  0  0  0
    0.3890    1.1648    0.7824 H   0  0  0  0  0  0  0  0  0  0  0  0
   -1.1091    0.8056   -3.1389 H   0  0  0  0  0  0  0  0  0  0  0  0
   -3.6036    1.8386   -5.4849 H   0  0  0  0  0  0  0  0  0  0  0  0
   -3.4928    0.9005   -3.9847 H   0  0  0  0  0  0  0  0  0  0  0  0
   -2.8285    2.5489   -4.0557 H   0  0  0  0  0  0  0  0  0  0  0  0
  1  2  1  0  0  0  0 
  1  3  1  0  0  0  0 
  1  4  1  0  0  0  0 
  1  5  1  0  0  0  0 
  2  6  1  0  0  0  0 
  2  7  2  0  0  0  0 
  3  8  1  0  0  0  0 
  4  9  1  0  0  0  0 
  6 10  1  0  0  0  0 
 10 11  1  0  0  0  0 
 10 12  2  0  0  0  0 
 11 13  1  0  0  0  0 
 13 14  1  0  0  0  0 
 13 15  2  0  0  0  0 
  3 16  1  0  0  0  0 
  3 17  1  0  0  0  0 
  4 18  1  0  0  0  0 
  4 19  1  0  0  0  0 
  6 20  1  0  0  0  0 
  8 21  1  0  0  0  0 
  8 22  1  0  0  0  0 
  8 23  1  0  0  0  0 
  9 24  1  0  0  0  0 
  9 25  1  0  0  0  0 
  9 26  1  0  0  0  0 
 11 27  1  0  0  0  0 
 14 28  1  0  0  0  0 
 14 29  1  0  0  0  0 
 14 30  1  0  0  0  0 
M  END
> <cdk:Title>
acecarbromal

> <Conformer>
8

> <SuperDrugID>
SD000019

$$$$
acecarbromal
  CDK     0628171801

 30 29  0  0  0  0  0  0  0  0999 V2000
    2.0013   -0.7925   -0.8558 C   0  0  2  0  0  0  0  0  0  0  0  0
    0.9629   -0.3873   -1.8635 C   0  0  0  0  0  0  0  0  0  0  0  0
    1.5423   -2.1273   -0.1679 C   0  0  1  0  0  0  0  0  0  0  0  0
    2.3150    0.3839    0.1336 C   0  0  1  0  0  0  0  0  0  0  0  0
    3.6904   -1.1735   -1.7427 Br  0  0  0  0  0  0  0  0  0  0  0  0
    1.2843   -0.0997   -3.1619 N   0  0  0  0  0  0  0  0  0  0  0  0
   -0.2337   -0.3153   -1.4904 O   0  0  0  0  0  0  0  0  0  0  0  0
    2.4741   -2.7483    0.9005 C   0  0  0  0  0  0  0  0  0  0  0  0
    1.1869    0.8409    1.0890 C   0  0  0  0  0  0  0  0  0  0  0  0
    0.4376    0.2080   -4.1892 C   0  0  0  0  0  0  0  0  0  0  0  0
    0.8654    0.5392   -5.4363 N   0  0  0  0  0  0  0  0  0  0  0  0
   -0.8088    0.1803   -4.0526 O   0  0  0  0  0  0  0  0  0  0  0  0
    2.1415    0.7396   -5.8723 C   0  0  0  0  0  0  0  0  0  0  0  0
    2.3576    0.9777   -7.3077 C   0  0  0  0  0  0  0  0  0  0  0  0
    3.1375    0.7356   -5.1101 O   0  0  0  0  0  0  0  0  0  0  0  0
    0.5718   -1.9781    0.3112 H   0  0  0  0  0  0  0  0  0  0  0  0
    1.3981   -2.8803   -0.9480 H   0  0  0  0  0  0  0  0  0  0  0  0
    3.1693    0.1111    0.7575 H   0  0  0  0  0  0  0  0  0  0  0  0
    2.6216    1.2576   -0.4487 H   0  0  0  0  0  0  0  0  0  0  0  0
    2.2256   -0.1231   -3.3821 H   0  0  0  0  0  0  0  0  0  0  0  0
    3.4202   -3.0609    0.4598 H   0  0  0  0  0  0  0  0  0  0  0  0
    2.6705   -2.0463    1.7099 H   0  0  0  0  0  0  0  0  0  0  0  0
    1.9894   -3.6285    1.3274 H   0  0  0  0  0  0  0  0  0  0  0  0
    1.5574    1.6319    1.7438 H   0  0  0  0  0  0  0  0  0  0  0  0
    0.8473    0.0169    1.7153 H   0  0  0  0  0  0  0  0  0  0  0  0
    0.3432    1.2376    0.5264 H   0  0  0  0  0  0  0  0  0  0  0  0
    0.1697    0.6515   -6.1027 H   0  0  0  0  0  0  0  0  0  0  0  0
    3.3883    1.2794   -7.5104 H   0  0  0  0  0  0  0  0  0  0  0  0
    2.1506    0.0580   -7.8566 H   0  0  0  0  0  0  0  0  0  0  0  0
    1.6910    1.7650   -7.6636 H   0  0  0  0  0  0  0  0  0  0  0  0
  1  2  1  0  0  0  0 
  1  3  1  0  0  0  0 
  1  4  1  0  0  0  0 
  1  5  1  0  0  0  0 
  2  6  1  0  0  0  0 
  2  7  2  0  0  0  0 
  3  8  1  0  0  0  0 
  4  9  1  0  0  0  0 
  6 10  1  0  0  0  0 
 10 11  1  0  0  0  0 
 10 12  2  0  0  0  0 
 11 13  1  0  0  0  0 
 13 14  1  0  0  0  0 
 13 15  2  0  0  0  0 
  3 16  1  0  0  0  0 
  3 17  1  0  0  0  0 
  4 18  1  0  0  0  0 
  4 19  1  0  0  0  0 
  6 20  1  0  0  0  0 
  8 21  1  0  0  0  0 
  8 22  1  0  0  0  0 
  8 23  1  0  0  0  0 
  9 24  1  0  0  0  0 
  9 25  1  0  0  0  0 
  9 26  1  0  0  0  0 
 11 27  1  0  0  0  0 
 14 28  1  0  0  0  0 
 14 29  1  0  0  0  0 
 14 30  1  0  0  0  0 
M  END
> <cdk:Title>
acecarbromal

> <Conformer>
9

> <SuperDrugID>
SD000019

$$$$
acecarbromal
  CDK     0628171801

 30 29  0  0  0  0  0  0  0  0999 V2000
    1.9975   -0.6902   -0.7988 C   0  0  2  0  0  0  0  0  0  0  0  0
    0.9515   -0.2001   -1.7588 C   0  0  0  0  0  0  0  0  0  0  0  0
    1.3652   -1.8395    0.0694 C   0  0  1  0  0  0  0  0  0  0  0  0
    2.5205    0.4891    0.0927 C   0  0  2  0  0  0  0  0  0  0  0  0
    3.5202   -1.4505   -1.7401 Br  0  0  0  0  0  0  0  0  0  0  0  0
    1.1588   -0.2017   -3.1087 N   0  0  0  0  0  0  0  0  0  0  0  0
   -0.1554    0.1491   -1.2820 O   0  0  0  0  0  0  0  0  0  0  0  0
    2.2813   -2.5450    1.1008 C   0  0  0  0  0  0  0  0  0  0  0  0
    3.0827    1.7232   -0.6557 C   0  0  0  0  0  0  0  0  0  0  0  0
    0.3308    0.1708   -4.1291 C   0  0  0  0  0  0  0  0  0  0  0  0
   -0.7887    0.9465   -4.1433 N   0  0  0  0  0  0  0  0  0  0  0  0
    0.6424   -0.3071   -5.2423 O   0  0  0  0  0  0  0  0  0  0  0  0
   -1.1358    1.9804   -3.3287 C   0  0  0  0  0  0  0  0  0  0  0  0
   -2.4688    2.5954   -3.4535 C   0  0  0  0  0  0  0  0  0  0  0  0
   -0.3379    2.4880   -2.5064 O   0  0  0  0  0  0  0  0  0  0  0  0
    0.5139   -1.4439    0.6316 H   0  0  0  0  0  0  0  0  0  0  0  0
    0.9755   -2.6165   -0.5954 H   0  0  0  0  0  0  0  0  0  0  0  0
    3.3255    0.1245    0.7339 H   0  0  0  0  0  0  0  0  0  0  0  0
    1.7156    0.8322    0.7484 H   0  0  0  0  0  0  0  0  0  0  0  0
    2.0007   -0.5845   -3.3979 H   0  0  0  0  0  0  0  0  0  0  0  0
    3.0986   -3.0705    0.6055 H   0  0  0  0  0  0  0  0  0  0  0  0
    2.6924   -1.8347    1.8179 H   0  0  0  0  0  0  0  0  0  0  0  0
    1.6969   -3.2784    1.6594 H   0  0  0  0  0  0  0  0  0  0  0  0
    3.4154    2.4690    0.0701 H   0  0  0  0  0  0  0  0  0  0  0  0
    2.3186    2.1796   -1.2857 H   0  0  0  0  0  0  0  0  0  0  0  0
    3.9365    1.4438   -1.2750 H   0  0  0  0  0  0  0  0  0  0  0  0
   -1.4056    0.7682   -4.8708 H   0  0  0  0  0  0  0  0  0  0  0  0
   -2.3657    3.6586   -3.6761 H   0  0  0  0  0  0  0  0  0  0  0  0
   -3.0517    2.1327   -4.2525 H   0  0  0  0  0  0  0  0  0  0  0  0
   -3.0173    2.4805   -2.5173 H   0  0  0  0  0  0  0  0  0  0  0  0
  1  2  1  0  0  0  0 
  1  3  1  0  0  0  0 
  1  4  1  0  0  0  0 
  1  5  1  0  0  0  0 
  2  6  1  0  0  0  0 
  2  7  2  0  0  0  0 
  3  8  1  0  0  0  0 
  4  9  1  0  0  0  0 
  6 10  1  0  0  0  0 
 10 11  1  0  0  0  0 
 10 12  2  0  0  0  0 
 11 13  1  0  0  0  0 
 13 14  1  0  0  0  0 
 13 15  2  0  0  0  0 
  3 16  1  0  0  0  0 
  3 17  1  0  0  0  0 
  4 18  1  0  0  0  0 
  4 19  1  0  0  0  0 
  6 20  1  0  0  0  0 
  8 21  1  0  0  0  0 
  8 22  1  0  0  0  0 
  8 23  1  0  0  0  0 
  9 24  1  0  0  0  0 
  9 25  1  0  0  0  0 
  9 26  1  0  0  0  0 
 11 27  1  0  0  0  0 
 14 28  1  0  0  0  0 
 14 29  1  0  0  0  0 
 14 30  1  0  0  0  0 
M  END
> <cdk:Title>
acecarbromal

> <Conformer>
10

> <SuperDrugID>
SD000019

$$$$
