abacavir
  CDK     0628171801

 39 42  0  0  0  0  0  0  0  0999 V2000
   -0.3480   -4.4301    5.0053 C   0  0  0  0  0  0  0  0  0  0  0  0
   -0.2062   -4.0675    3.6689 C   0  0  0  0  0  0  0  0  0  0  0  0
   -1.2605   -3.5841    2.9627 N   0  0  0  0  0  0  0  0  0  0  0  0
   -2.4753   -3.4628    3.5655 C   0  0  0  0  0  0  0  0  0  0  0  0
   -2.6287   -3.8219    4.8714 N   0  0  0  0  0  0  0  0  0  0  0  0
   -1.6026   -4.3087    5.6296 C   0  0  0  0  0  0  0  0  0  0  0  0
    1.0696   -4.3165    3.3089 N   0  0  0  0  0  0  0  0  0  0  0  0
    1.6760   -4.7892    4.4238 C   0  0  0  0  0  0  0  0  0  0  0  0
    0.8296   -4.8659    5.4687 N   0  0  0  0  0  0  0  0  0  0  0  0
    1.6913   -4.1552    2.0126 C   0  0  2  0  0  0  0  0  0  0  0  0
   -1.7533   -4.6694    6.9302 N   0  0  0  0  0  0  0  0  0  0  0  0
   -2.9594   -4.5079    7.6727 C   0  0  1  0  0  0  0  0  0  0  0  0
   -3.6950   -5.7830    8.1007 C   0  0  1  0  0  0  0  0  0  0  0  0
   -2.9066   -4.9735    9.1367 C   0  0  1  0  0  0  0  0  0  0  0  0
   -3.5241   -2.9862    2.8784 N   0  0  0  0  0  0  0  0  0  0  0  0
    2.0346   -2.6868    1.6409 C   0  0  1  0  0  0  0  0  0  0  0  0
    1.3482   -2.4034    0.2726 C   0  0  1  0  0  0  0  0  0  0  0  0
    0.6648   -3.6404   -0.0043 C   0  0  0  0  0  0  0  0  0  0  0  0
    0.8572   -4.5786    0.9186 C   0  0  0  0  0  0  0  0  0  0  0  0
    0.4139   -1.1617    0.2754 C   0  0  2  0  0  0  0  0  0  0  0  0
   -0.1695   -0.9569   -1.0085 O   0  0  0  0  0  0  0  0  0  0  0  0
    2.6594   -5.0628    4.4790 H   0  0  0  0  0  0  0  0  0  0  0  0
    2.6070   -4.7561    1.9706 H   0  0  0  0  0  0  0  0  0  0  0  0
   -0.9887   -5.0596    7.3834 H   0  0  0  0  0  0  0  0  0  0  0  0
   -3.5905   -3.6338    7.4976 H   0  0  0  0  0  0  0  0  0  0  0  0
   -4.7807   -5.7082    8.1861 H   0  0  0  0  0  0  0  0  0  0  0  0
   -3.2393   -6.7341    7.8138 H   0  0  0  0  0  0  0  0  0  0  0  0
   -1.9675   -5.4169    9.4755 H   0  0  0  0  0  0  0  0  0  0  0  0
   -3.4984   -4.3859    9.8386 H   0  0  0  0  0  0  0  0  0  0  0  0
   -3.4231   -2.7406    1.9467 H   0  0  0  0  0  0  0  0  0  0  0  0
   -4.3861   -2.8883    3.3125 H   0  0  0  0  0  0  0  0  0  0  0  0
    1.6943   -1.9945    2.4150 H   0  0  0  0  0  0  0  0  0  0  0  0
    3.1200   -2.5704    1.5470 H   0  0  0  0  0  0  0  0  0  0  0  0
    2.1110   -2.2561   -0.5003 H   0  0  0  0  0  0  0  0  0  0  0  0
    0.1120   -3.7882   -0.8174 H   0  0  0  0  0  0  0  0  0  0  0  0
    0.4601   -5.4871    0.8599 H   0  0  0  0  0  0  0  0  0  0  0  0
    0.9967   -0.2731    0.5282 H   0  0  0  0  0  0  0  0  0  0  0  0
   -0.3843   -1.2756    1.0125 H   0  0  0  0  0  0  0  0  0  0  0  0
   -0.7331   -0.1615   -0.9077 H   0  0  0  0  0  0  0  0  0  0  0  0
  1  6  2  0  0  0  0 
  2  3  2  0  0  0  0 
  3  4  1  0  0  0  0 
  4  5  2  0  0  0  0 
  5  6  1  0  0  0  0 
  1  9  1  0  0  0  0 
  1  2  1  0  0  0  0 
  2  7  1  0  0  0  0 
  7  8  1  0  0  0  0 
  8  9  2  0  0  0  0 
 10  7  1  0  0  0  0 
  6 11  1  0  0  0  0 
 11 12  1  0  0  0  0 
 12 13  1  0  0  0  0 
 14 12  1  0  0  0  0 
 13 14  1  0  0  0  0 
  4 15  1  0  0  0  0 
 19 10  1  0  0  0  0 
 16 10  1  0  0  0  0 
 16 17  1  0  0  0  0 
 17 18  1  0  0  0  0 
 18 19  2  0  0  0  0 
 17 20  1  0  0  0  0 
 20 21  1  0  0  0  0 
  8 22  1  0  0  0  0 
 10 23  1  0  0  0  0 
 11 24  1  0  0  0  0 
 12 25  1  0  0  0  0 
 13 26  1  0  0  0  0 
 13 27  1  0  0  0  0 
 14 28  1  0  0  0  0 
 14 29  1  0  0  0  0 
 15 30  1  0  0  0  0 
 15 31  1  0  0  0  0 
 16 32  1  0  0  0  0 
 16 33  1  0  0  0  0 
 17 34  1  0  0  0  0 
 18 35  1  0  0  0  0 
 19 36  1  0  0  0  0 
 20 37  1  0  0  0  0 
 20 38  1  0  0  0  0 
 21 39  1  0  0  0  0 
M  END
> <cdk:Title>
abacavir

> <Conformer>
1

> <SuperDrugID>
SD000013

$$$$
abacavir
  CDK     0628171801

 39 42  0  0  0  0  0  0  0  0999 V2000
    4.1651   -1.3840   -3.5736 C   0  0  0  0  0  0  0  0  0  0  0  0
    3.6367   -0.9239   -2.3721 C   0  0  0  0  0  0  0  0  0  0  0  0
    3.1762    0.3475   -2.2596 N   0  0  0  0  0  0  0  0  0  0  0  0
    3.2414    1.1864   -3.3297 C   0  0  0  0  0  0  0  0  0  0  0  0
    3.7883    0.7598   -4.5035 N   0  0  0  0  0  0  0  0  0  0  0  0
    4.2652   -0.5098   -4.6692 C   0  0  0  0  0  0  0  0  0  0  0  0
    3.7109   -1.9300   -1.4775 N   0  0  0  0  0  0  0  0  0  0  0  0
    4.2289   -2.9808   -2.1571 C   0  0  0  0  0  0  0  0  0  0  0  0
    4.5233   -2.6664   -3.4334 N   0  0  0  0  0  0  0  0  0  0  0  0
    3.3654   -1.9436   -0.0721 C   0  0  2  0  0  0  0  0  0  0  0  0
    4.8452   -0.9439   -5.8152 N   0  0  0  0  0  0  0  0  0  0  0  0
    5.2493   -0.0840   -6.8742 C   0  0  1  0  0  0  0  0  0  0  0  0
    6.7508    0.2285   -6.9847 C   0  0  1  0  0  0  0  0  0  0  0  0
    6.0967   -0.7436   -7.9721 C   0  0  1  0  0  0  0  0  0  0  0  0
    2.7640    2.4340   -3.2216 N   0  0  0  0  0  0  0  0  0  0  0  0
    1.9302   -2.4599    0.2198 C   0  0  1  0  0  0  0  0  0  0  0  0
    1.2450   -1.3629    1.0845 C   0  0  1  0  0  0  0  0  0  0  0  0
    2.2632   -0.3556    1.2115 C   0  0  0  0  0  0  0  0  0  0  0  0
    3.3948   -0.6635    0.5861 C   0  0  0  0  0  0  0  0  0  0  0  0
   -0.0724   -0.8040    0.4808 C   0  0  2  0  0  0  0  0  0  0  0  0
    0.1356   -0.1976   -0.7931 O   0  0  0  0  0  0  0  0  0  0  0  0
    4.3986   -3.9065   -1.7566 H   0  0  0  0  0  0  0  0  0  0  0  0
    4.0907   -2.5688    0.4625 H   0  0  0  0  0  0  0  0  0  0  0  0
    5.0282   -1.8940   -5.9018 H   0  0  0  0  0  0  0  0  0  0  0  0
    4.5594    0.6762   -7.2474 H   0  0  0  0  0  0  0  0  0  0  0  0
    7.0085    1.2096   -7.3873 H   0  0  0  0  0  0  0  0  0  0  0  0
    7.4060   -0.2335   -6.2428 H   0  0  0  0  0  0  0  0  0  0  0  0
    6.3482   -1.7964   -7.8324 H   0  0  0  0  0  0  0  0  0  0  0  0
    5.9425   -0.3613   -8.9817 H   0  0  0  0  0  0  0  0  0  0  0  0
    2.3908    2.7362   -2.3784 H   0  0  0  0  0  0  0  0  0  0  0  0
    2.7840    3.0323   -3.9851 H   0  0  0  0  0  0  0  0  0  0  0  0
    1.3813   -2.6516   -0.7070 H   0  0  0  0  0  0  0  0  0  0  0  0
    1.9788   -3.4001    0.7791 H   0  0  0  0  0  0  0  0  0  0  0  0
    1.0327   -1.7570    2.0847 H   0  0  0  0  0  0  0  0  0  0  0  0
    2.1377    0.4858    1.7260 H   0  0  0  0  0  0  0  0  0  0  0  0
    4.1917   -0.0687    0.5840 H   0  0  0  0  0  0  0  0  0  0  0  0
   -0.5044   -0.0570    1.1521 H   0  0  0  0  0  0  0  0  0  0  0  0
   -0.7962   -1.6144    0.3637 H   0  0  0  0  0  0  0  0  0  0  0  0
   -0.7513    0.1188   -1.0652 H   0  0  0  0  0  0  0  0  0  0  0  0
  1  6  2  0  0  0  0 
  2  3  2  0  0  0  0 
  3  4  1  0  0  0  0 
  4  5  2  0  0  0  0 
  5  6  1  0  0  0  0 
  1  9  1  0  0  0  0 
  1  2  1  0  0  0  0 
  2  7  1  0  0  0  0 
  7  8  1  0  0  0  0 
  8  9  2  0  0  0  0 
 10  7  1  0  0  0  0 
  6 11  1  0  0  0  0 
 11 12  1  0  0  0  0 
 12 13  1  0  0  0  0 
 14 12  1  0  0  0  0 
 13 14  1  0  0  0  0 
  4 15  1  0  0  0  0 
 19 10  1  0  0  0  0 
 16 10  1  0  0  0  0 
 16 17  1  0  0  0  0 
 17 18  1  0  0  0  0 
 18 19  2  0  0  0  0 
 17 20  1  0  0  0  0 
 20 21  1  0  0  0  0 
  8 22  1  0  0  0  0 
 10 23  1  0  0  0  0 
 11 24  1  0  0  0  0 
 12 25  1  0  0  0  0 
 13 26  1  0  0  0  0 
 13 27  1  0  0  0  0 
 14 28  1  0  0  0  0 
 14 29  1  0  0  0  0 
 15 30  1  0  0  0  0 
 15 31  1  0  0  0  0 
 16 32  1  0  0  0  0 
 16 33  1  0  0  0  0 
 17 34  1  0  0  0  0 
 18 35  1  0  0  0  0 
 19 36  1  0  0  0  0 
 20 37  1  0  0  0  0 
 20 38  1  0  0  0  0 
 21 39  1  0  0  0  0 
M  END
> <cdk:Title>
abacavir

> <Conformer>
2

> <SuperDrugID>
SD000013

$$$$
abacavir
  CDK     0628171801

 39 42  0  0  0  0  0  0  0  0999 V2000
    4.8167    1.1870    2.7207 C   0  0  0  0  0  0  0  0  0  0  0  0
    4.7272   -0.1480    2.3396 C   0  0  0  0  0  0  0  0  0  0  0  0
    5.8175   -0.8292    1.9050 N   0  0  0  0  0  0  0  0  0  0  0  0
    7.0204   -0.1972    1.8408 C   0  0  0  0  0  0  0  0  0  0  0  0
    7.1311    1.1071    2.2177 N   0  0  0  0  0  0  0  0  0  0  0  0
    6.0726    1.8272    2.6793 C   0  0  0  0  0  0  0  0  0  0  0  0
    3.4524   -0.5441    2.4982 N   0  0  0  0  0  0  0  0  0  0  0  0
    2.7784    0.5598    2.9094 C   0  0  0  0  0  0  0  0  0  0  0  0
    3.5964    1.6195    3.0657 N   0  0  0  0  0  0  0  0  0  0  0  0
    2.9523   -1.8814    2.2706 C   0  0  2  0  0  0  0  0  0  0  0  0
    6.3254    3.0954    3.0753 N   0  0  0  0  0  0  0  0  0  0  0  0
    5.8399    3.6586    4.2892 C   0  0  1  0  0  0  0  0  0  0  0  0
    6.7687    3.4704    5.4999 C   0  0  1  0  0  0  0  0  0  0  0  0
    6.6231    4.8543    4.8534 C   0  0  1  0  0  0  0  0  0  0  0  0
    8.1101   -0.8574    1.4260 N   0  0  0  0  0  0  0  0  0  0  0  0
    2.3844   -2.0807    0.8421 C   0  0  1  0  0  0  0  0  0  0  0  0
    0.8499   -2.2523    1.0144 C   0  0  1  0  0  0  0  0  0  0  0  0
    0.7071   -2.4157    2.4366 C   0  0  0  0  0  0  0  0  0  0  0  0
    1.8389   -2.2356    3.1106 C   0  0  0  0  0  0  0  0  0  0  0  0
    0.0108   -1.0564    0.4895 C   0  0  2  0  0  0  0  0  0  0  0  0
    0.1294   -0.9381   -0.9238 O   0  0  0  0  0  0  0  0  0  0  0  0
    1.7717    0.6001    3.0898 H   0  0  0  0  0  0  0  0  0  0  0  0
    3.7479   -2.6123    2.4575 H   0  0  0  0  0  0  0  0  0  0  0  0
    6.9742    3.6065    2.5657 H   0  0  0  0  0  0  0  0  0  0  0  0
    4.7702    3.6643    4.5084 H   0  0  0  0  0  0  0  0  0  0  0  0
    6.2722    3.3339    6.4623 H   0  0  0  0  0  0  0  0  0  0  0  0
    7.7142    2.9527    5.3112 H   0  0  0  0  0  0  0  0  0  0  0  0
    7.4742    5.1983    4.2596 H   0  0  0  0  0  0  0  0  0  0  0  0
    6.0459    5.5838    5.4286 H   0  0  0  0  0  0  0  0  0  0  0  0
    8.0534   -1.7936    1.1800 H   0  0  0  0  0  0  0  0  0  0  0  0
    8.9631   -0.3996    1.3855 H   0  0  0  0  0  0  0  0  0  0  0  0
    2.6424   -1.2498    0.1785 H   0  0  0  0  0  0  0  0  0  0  0  0
    2.8089   -2.9909    0.4074 H   0  0  0  0  0  0  0  0  0  0  0  0
    0.5159   -3.1713    0.5207 H   0  0  0  0  0  0  0  0  0  0  0  0
   -0.1556   -2.6399    2.8745 H   0  0  0  0  0  0  0  0  0  0  0  0
    1.9092   -2.3222    4.0982 H   0  0  0  0  0  0  0  0  0  0  0  0
    0.3415   -0.1200    0.9442 H   0  0  0  0  0  0  0  0  0  0  0  0
   -1.0444   -1.2056    0.7284 H   0  0  0  0  0  0  0  0  0  0  0  0
   -0.4338   -0.1696   -1.1569 H   0  0  0  0  0  0  0  0  0  0  0  0
  1  6  2  0  0  0  0 
  2  3  2  0  0  0  0 
  3  4  1  0  0  0  0 
  4  5  2  0  0  0  0 
  5  6  1  0  0  0  0 
  1  9  1  0  0  0  0 
  1  2  1  0  0  0  0 
  2  7  1  0  0  0  0 
  7  8  1  0  0  0  0 
  8  9  2  0  0  0  0 
 10  7  1  0  0  0  0 
  6 11  1  0  0  0  0 
 11 12  1  0  0  0  0 
 12 13  1  0  0  0  0 
 14 12  1  0  0  0  0 
 13 14  1  0  0  0  0 
  4 15  1  0  0  0  0 
 19 10  1  0  0  0  0 
 16 10  1  0  0  0  0 
 16 17  1  0  0  0  0 
 17 18  1  0  0  0  0 
 18 19  2  0  0  0  0 
 17 20  1  0  0  0  0 
 20 21  1  0  0  0  0 
  8 22  1  0  0  0  0 
 10 23  1  0  0  0  0 
 11 24  1  0  0  0  0 
 12 25  1  0  0  0  0 
 13 26  1  0  0  0  0 
 13 27  1  0  0  0  0 
 14 28  1  0  0  0  0 
 14 29  1  0  0  0  0 
 15 30  1  0  0  0  0 
 15 31  1  0  0  0  0 
 16 32  1  0  0  0  0 
 16 33  1  0  0  0  0 
 17 34  1  0  0  0  0 
 18 35  1  0  0  0  0 
 19 36  1  0  0  0  0 
 20 37  1  0  0  0  0 
 20 38  1  0  0  0  0 
 21 39  1  0  0  0  0 
M  END
> <cdk:Title>
abacavir

> <Conformer>
3

> <SuperDrugID>
SD000013

$$$$
abacavir
  CDK     0628171801

 39 42  0  0  0  0  0  0  0  0999 V2000
    4.4427    1.3039    2.3894 C   0  0  0  0  0  0  0  0  0  0  0  0
    3.4582    0.3260    2.4412 C   0  0  0  0  0  0  0  0  0  0  0  0
    2.2327    0.6070    2.9498 N   0  0  0  0  0  0  0  0  0  0  0  0
    1.9560    1.8511    3.4229 C   0  0  0  0  0  0  0  0  0  0  0  0
    2.9160    2.8170    3.3998 N   0  0  0  0  0  0  0  0  0  0  0  0
    4.1630    2.5860    2.8950 C   0  0  0  0  0  0  0  0  0  0  0  0
    3.9777   -0.8182    1.9518 N   0  0  0  0  0  0  0  0  0  0  0  0
    5.2524   -0.5179    1.6085 C   0  0  0  0  0  0  0  0  0  0  0  0
    5.5551    0.7697    1.8680 N   0  0  0  0  0  0  0  0  0  0  0  0
    3.3440   -2.1098    1.8025 C   0  0  2  0  0  0  0  0  0  0  0  0
    5.1291    3.5288    2.9386 N   0  0  0  0  0  0  0  0  0  0  0  0
    5.4306    4.2133    4.1504 C   0  0  1  0  0  0  0  0  0  0  0  0
    6.4469    3.4589    5.0266 C   0  0  1  0  0  0  0  0  0  0  0  0
    6.8443    4.7753    4.3578 C   0  0  1  0  0  0  0  0  0  0  0  0
    0.7342    2.1145    3.9092 N   0  0  0  0  0  0  0  0  0  0  0  0
    2.5116   -2.2253    0.4989 C   0  0  1  0  0  0  0  0  0  0  0  0
    1.0250   -2.3077    0.9430 C   0  0  1  0  0  0  0  0  0  0  0  0
    1.1294   -2.4914    2.3662 C   0  0  0  0  0  0  0  0  0  0  0  0
    2.3751   -2.4070    2.8253 C   0  0  0  0  0  0  0  0  0  0  0  0
    0.1735   -1.0707    0.5464 C   0  0  2  0  0  0  0  0  0  0  0  0
    0.1070   -0.9631   -0.8718 O   0  0  0  0  0  0  0  0  0  0  0  0
    5.9202   -1.1795    1.2064 H   0  0  0  0  0  0  0  0  0  0  0  0
    4.1011   -2.9026    1.8180 H   0  0  0  0  0  0  0  0  0  0  0  0
    5.6924    3.6675    2.1603 H   0  0  0  0  0  0  0  0  0  0  0  0
    4.6297    4.6973    4.7161 H   0  0  0  0  0  0  0  0  0  0  0  0
    6.3053    3.5126    6.1064 H   0  0  0  0  0  0  0  0  0  0  0  0
    6.9322    2.5795    4.5992 H   0  0  0  0  0  0  0  0  0  0  0  0
    7.5286    4.6887    3.5130 H   0  0  0  0  0  0  0  0  0  0  0  0
    6.9294    5.6306    5.0307 H   0  0  0  0  0  0  0  0  0  0  0  0
    0.0620    1.4159    3.9311 H   0  0  0  0  0  0  0  0  0  0  0  0
    0.5157    3.0008    4.2343 H   0  0  0  0  0  0  0  0  0  0  0  0
    2.7016   -1.3891   -0.1798 H   0  0  0  0  0  0  0  0  0  0  0  0
    2.7856   -3.1457   -0.0286 H   0  0  0  0  0  0  0  0  0  0  0  0
    0.5609   -3.2030    0.5176 H   0  0  0  0  0  0  0  0  0  0  0  0
    0.3500   -2.6788    2.9528 H   0  0  0  0  0  0  0  0  0  0  0  0
    2.6116   -2.5244    3.7829 H   0  0  0  0  0  0  0  0  0  0  0  0
    0.6080   -0.1510    0.9428 H   0  0  0  0  0  0  0  0  0  0  0  0
   -0.8461   -1.1678    0.9277 H   0  0  0  0  0  0  0  0  0  0  0  0
   -0.4208   -0.1546   -1.0357 H   0  0  0  0  0  0  0  0  0  0  0  0
  1  6  2  0  0  0  0 
  2  3  2  0  0  0  0 
  3  4  1  0  0  0  0 
  4  5  2  0  0  0  0 
  5  6  1  0  0  0  0 
  1  9  1  0  0  0  0 
  1  2  1  0  0  0  0 
  2  7  1  0  0  0  0 
  7  8  1  0  0  0  0 
  8  9  2  0  0  0  0 
 10  7  1  0  0  0  0 
  6 11  1  0  0  0  0 
 11 12  1  0  0  0  0 
 12 13  1  0  0  0  0 
 14 12  1  0  0  0  0 
 13 14  1  0  0  0  0 
  4 15  1  0  0  0  0 
 19 10  1  0  0  0  0 
 16 10  1  0  0  0  0 
 16 17  1  0  0  0  0 
 17 18  1  0  0  0  0 
 18 19  2  0  0  0  0 
 17 20  1  0  0  0  0 
 20 21  1  0  0  0  0 
  8 22  1  0  0  0  0 
 10 23  1  0  0  0  0 
 11 24  1  0  0  0  0 
 12 25  1  0  0  0  0 
 13 26  1  0  0  0  0 
 13 27  1  0  0  0  0 
 14 28  1  0  0  0  0 
 14 29  1  0  0  0  0 
 15 30  1  0  0  0  0 
 15 31  1  0  0  0  0 
 16 32  1  0  0  0  0 
 16 33  1  0  0  0  0 
 17 34  1  0  0  0  0 
 18 35  1  0  0  0  0 
 19 36  1  0  0  0  0 
 20 37  1  0  0  0  0 
 20 38  1  0  0  0  0 
 21 39  1  0  0  0  0 
M  END
> <cdk:Title>
abacavir

> <Conformer>
4

> <SuperDrugID>
SD000013

$$$$
abacavir
  CDK     0628171801

 39 42  0  0  0  0  0  0  0  0999 V2000
   -0.0444   -4.1915    5.1211 C   0  0  0  0  0  0  0  0  0  0  0  0
    1.1071   -4.1911    4.3426 C   0  0  0  0  0  0  0  0  0  0  0  0
    2.3296   -4.3999    4.8959 N   0  0  0  0  0  0  0  0  0  0  0  0
    2.4318   -4.6165    6.2352 C   0  0  0  0  0  0  0  0  0  0  0  0
    1.3129   -4.6352    7.0120 N   0  0  0  0  0  0  0  0  0  0  0  0
    0.0637   -4.4515    6.5025 C   0  0  0  0  0  0  0  0  0  0  0  0
    0.7484   -3.9607    3.0677 N   0  0  0  0  0  0  0  0  0  0  0  0
   -0.5941   -3.7651    3.0981 C   0  0  0  0  0  0  0  0  0  0  0  0
   -1.0949   -3.9111    4.3396 N   0  0  0  0  0  0  0  0  0  0  0  0
    1.6401   -3.9259    1.9305 C   0  0  2  0  0  0  0  0  0  0  0  0
   -0.9795   -4.5448    7.3574 N   0  0  0  0  0  0  0  0  0  0  0  0
   -2.1479   -5.3140    7.0904 C   0  0  1  0  0  0  0  0  0  0  0  0
   -2.0514   -6.7813    7.5350 C   0  0  1  0  0  0  0  0  0  0  0  0
   -2.9705   -5.8136    8.2887 C   0  0  1  0  0  0  0  0  0  0  0  0
    3.6291   -4.8384    6.7975 N   0  0  0  0  0  0  0  0  0  0  0  0
    2.1061   -2.4922    1.5690 C   0  0  1  0  0  0  0  0  0  0  0  0
    1.4398   -2.1548    0.2073 C   0  0  1  0  0  0  0  0  0  0  0  0
    0.9085   -3.4255   -0.2084 C   0  0  0  0  0  0  0  0  0  0  0  0
    1.0352   -4.3821    0.7070 C   0  0  0  0  0  0  0  0  0  0  0  0
    0.3497   -1.0541    0.3028 C   0  0  2  0  0  0  0  0  0  0  0  0
   -0.2135   -0.7795   -0.9766 O   0  0  0  0  0  0  0  0  0  0  0  0
   -1.1735   -3.5411    2.2864 H   0  0  0  0  0  0  0  0  0  0  0  0
    2.5173   -4.5560    2.1186 H   0  0  0  0  0  0  0  0  0  0  0  0
   -0.8796   -4.1576    8.2404 H   0  0  0  0  0  0  0  0  0  0  0  0
   -2.7280   -5.1306    6.1847 H   0  0  0  0  0  0  0  0  0  0  0  0
   -2.5427   -7.5049    6.8834 H   0  0  0  0  0  0  0  0  0  0  0  0
   -1.1375   -7.0723    8.0592 H   0  0  0  0  0  0  0  0  0  0  0  0
   -2.6313   -5.4913    9.2748 H   0  0  0  0  0  0  0  0  0  0  0  0
   -4.0401   -5.9465    8.1133 H   0  0  0  0  0  0  0  0  0  0  0  0
    4.4288   -4.8580    6.2488 H   0  0  0  0  0  0  0  0  0  0  0  0
    3.6907   -4.9890    7.7546 H   0  0  0  0  0  0  0  0  0  0  0  0
    1.8461   -1.7709    2.3488 H   0  0  0  0  0  0  0  0  0  0  0  0
    3.1954   -2.4806    1.4562 H   0  0  0  0  0  0  0  0  0  0  0  0
    2.2026   -1.8391   -0.5129 H   0  0  0  0  0  0  0  0  0  0  0  0
    0.4927   -3.5766   -1.0982 H   0  0  0  0  0  0  0  0  0  0  0  0
    0.7362   -5.3188    0.5628 H   0  0  0  0  0  0  0  0  0  0  0  0
    0.7985   -0.1333    0.6811 H   0  0  0  0  0  0  0  0  0  0  0  0
   -0.4495   -1.3545    0.9843 H   0  0  0  0  0  0  0  0  0  0  0  0
   -0.8731   -0.0718   -0.8166 H   0  0  0  0  0  0  0  0  0  0  0  0
  1  6  2  0  0  0  0 
  2  3  2  0  0  0  0 
  3  4  1  0  0  0  0 
  4  5  2  0  0  0  0 
  5  6  1  0  0  0  0 
  1  9  1  0  0  0  0 
  1  2  1  0  0  0  0 
  2  7  1  0  0  0  0 
  7  8  1  0  0  0  0 
  8  9  2  0  0  0  0 
 10  7  1  0  0  0  0 
  6 11  1  0  0  0  0 
 11 12  1  0  0  0  0 
 12 13  1  0  0  0  0 
 14 12  1  0  0  0  0 
 13 14  1  0  0  0  0 
  4 15  1  0  0  0  0 
 19 10  1  0  0  0  0 
 16 10  1  0  0  0  0 
 16 17  1  0  0  0  0 
 17 18  1  0  0  0  0 
 18 19  2  0  0  0  0 
 17 20  1  0  0  0  0 
 20 21  1  0  0  0  0 
  8 22  1  0  0  0  0 
 10 23  1  0  0  0  0 
 11 24  1  0  0  0  0 
 12 25  1  0  0  0  0 
 13 26  1  0  0  0  0 
 13 27  1  0  0  0  0 
 14 28  1  0  0  0  0 
 14 29  1  0  0  0  0 
 15 30  1  0  0  0  0 
 15 31  1  0  0  0  0 
 16 32  1  0  0  0  0 
 16 33  1  0  0  0  0 
 17 34  1  0  0  0  0 
 18 35  1  0  0  0  0 
 19 36  1  0  0  0  0 
 20 37  1  0  0  0  0 
 20 38  1  0  0  0  0 
 21 39  1  0  0  0  0 
M  END
> <cdk:Title>
abacavir

> <Conformer>
5

> <SuperDrugID>
SD000013

$$$$
abacavir
  CDK     0628171801

 39 42  0  0  0  0  0  0  0  0999 V2000
   -1.5293   -3.8852    4.2319 C   0  0  0  0  0  0  0  0  0  0  0  0
   -0.9787   -3.8235    2.9560 C   0  0  0  0  0  0  0  0  0  0  0  0
   -1.7688   -3.6441    1.8666 N   0  0  0  0  0  0  0  0  0  0  0  0
   -3.1152   -3.5285    2.0193 C   0  0  0  0  0  0  0  0  0  0  0  0
   -3.6682   -3.5789    3.2616 N   0  0  0  0  0  0  0  0  0  0  0  0
   -2.9211   -3.7320    4.3884 C   0  0  0  0  0  0  0  0  0  0  0  0
    0.3563   -3.9681    3.0720 N   0  0  0  0  0  0  0  0  0  0  0  0
    0.5841   -4.1681    4.3917 C   0  0  0  0  0  0  0  0  0  0  0  0
   -0.5491   -4.1104    5.1160 N   0  0  0  0  0  0  0  0  0  0  0  0
    1.3788   -3.8628    2.0564 C   0  0  2  0  0  0  0  0  0  0  0  0
   -3.5758   -3.7049    5.5684 N   0  0  0  0  0  0  0  0  0  0  0  0
   -3.1629   -2.9108    6.6711 C   0  0  1  0  0  0  0  0  0  0  0  0
   -3.7133   -1.4753    6.6781 C   0  0  1  0  0  0  0  0  0  0  0  0
   -4.2618   -2.5127    7.6658 C   0  0  1  0  0  0  0  0  0  0  0  0
   -3.9067   -3.3510    0.9530 N   0  0  0  0  0  0  0  0  0  0  0  0
    1.8166   -2.3934    1.8076 C   0  0  1  0  0  0  0  0  0  0  0  0
    1.3801   -2.0504    0.3576 C   0  0  1  0  0  0  0  0  0  0  0  0
    0.9979   -3.3325   -0.1674 C   0  0  0  0  0  0  0  0  0  0  0  0
    0.9883   -4.3013    0.7441 C   0  0  0  0  0  0  0  0  0  0  0  0
    0.2210   -1.0197    0.2820 C   0  0  2  0  0  0  0  0  0  0  0  0
   -0.1701   -0.7787   -1.0664 O   0  0  0  0  0  0  0  0  0  0  0  0
    1.5021   -4.3391    4.8069 H   0  0  0  0  0  0  0  0  0  0  0  0
    2.2492   -4.4576    2.3492 H   0  0  0  0  0  0  0  0  0  0  0  0
   -4.4298   -4.1591    5.6263 H   0  0  0  0  0  0  0  0  0  0  0  0
   -2.1676   -3.0372    7.1028 H   0  0  0  0  0  0  0  0  0  0  0  0
   -3.0527   -0.7160    7.0990 H   0  0  0  0  0  0  0  0  0  0  0  0
   -4.3785   -1.2041    5.8543 H   0  0  0  0  0  0  0  0  0  0  0  0
   -5.2595   -2.9004    7.4515 H   0  0  0  0  0  0  0  0  0  0  0  0
   -3.9381   -2.4127    8.7033 H   0  0  0  0  0  0  0  0  0  0  0  0
   -3.5257   -3.3074    0.0631 H   0  0  0  0  0  0  0  0  0  0  0  0
   -4.8640   -3.2601    1.0739 H   0  0  0  0  0  0  0  0  0  0  0  0
    1.3814   -1.7085    2.5414 H   0  0  0  0  0  0  0  0  0  0  0  0
    2.9050   -2.3144    1.8921 H   0  0  0  0  0  0  0  0  0  0  0  0
    2.2358   -1.6691   -0.2096 H   0  0  0  0  0  0  0  0  0  0  0  0
    0.7592   -3.4777   -1.1207 H   0  0  0  0  0  0  0  0  0  0  0  0
    0.7306   -5.2361    0.5378 H   0  0  0  0  0  0  0  0  0  0  0  0
    0.5441   -0.0723    0.7194 H   0  0  0  0  0  0  0  0  0  0  0  0
   -0.6488   -1.3752    0.8380 H   0  0  0  0  0  0  0  0  0  0  0  0
   -0.9053   -0.1332   -1.0003 H   0  0  0  0  0  0  0  0  0  0  0  0
  1  6  2  0  0  0  0 
  2  3  2  0  0  0  0 
  3  4  1  0  0  0  0 
  4  5  2  0  0  0  0 
  5  6  1  0  0  0  0 
  1  9  1  0  0  0  0 
  1  2  1  0  0  0  0 
  2  7  1  0  0  0  0 
  7  8  1  0  0  0  0 
  8  9  2  0  0  0  0 
 10  7  1  0  0  0  0 
  6 11  1  0  0  0  0 
 11 12  1  0  0  0  0 
 12 13  1  0  0  0  0 
 14 12  1  0  0  0  0 
 13 14  1  0  0  0  0 
  4 15  1  0  0  0  0 
 19 10  1  0  0  0  0 
 16 10  1  0  0  0  0 
 16 17  1  0  0  0  0 
 17 18  1  0  0  0  0 
 18 19  2  0  0  0  0 
 17 20  1  0  0  0  0 
 20 21  1  0  0  0  0 
  8 22  1  0  0  0  0 
 10 23  1  0  0  0  0 
 11 24  1  0  0  0  0 
 12 25  1  0  0  0  0 
 13 26  1  0  0  0  0 
 13 27  1  0  0  0  0 
 14 28  1  0  0  0  0 
 14 29  1  0  0  0  0 
 15 30  1  0  0  0  0 
 15 31  1  0  0  0  0 
 16 32  1  0  0  0  0 
 16 33  1  0  0  0  0 
 17 34  1  0  0  0  0 
 18 35  1  0  0  0  0 
 19 36  1  0  0  0  0 
 20 37  1  0  0  0  0 
 20 38  1  0  0  0  0 
 21 39  1  0  0  0  0 
M  END
> <cdk:Title>
abacavir

> <Conformer>
6

> <SuperDrugID>
SD000013

$$$$
abacavir
  CDK     0628171801

 39 42  0  0  0  0  0  0  0  0999 V2000
    0.8577   -3.7968    5.4116 C   0  0  0  0  0  0  0  0  0  0  0  0
    1.7595   -4.1584    4.4187 C   0  0  0  0  0  0  0  0  0  0  0  0
    3.0203   -4.5503    4.7349 N   0  0  0  0  0  0  0  0  0  0  0  0
    3.4128   -4.5705    6.0399 C   0  0  0  0  0  0  0  0  0  0  0  0
    2.5515   -4.1828    7.0233 N   0  0  0  0  0  0  0  0  0  0  0  0
    1.2727   -3.7916    6.7531 C   0  0  0  0  0  0  0  0  0  0  0  0
    1.1449   -3.9880    3.2332 N   0  0  0  0  0  0  0  0  0  0  0  0
   -0.1045   -3.5486    3.5256 C   0  0  0  0  0  0  0  0  0  0  0  0
   -0.3016   -3.4330    4.8508 N   0  0  0  0  0  0  0  0  0  0  0  0
    1.7408   -4.1603    1.9289 C   0  0  2  0  0  0  0  0  0  0  0  0
    0.4327   -3.3437    7.7103 N   0  0  0  0  0  0  0  0  0  0  0  0
    0.8351   -2.3481    8.6397 C   0  0  1  0  0  0  0  0  0  0  0  0
    0.5846   -0.9167    8.1336 C   0  0  1  0  0  0  0  0  0  0  0  0
   -0.2424   -1.4752    9.2956 C   0  0  1  0  0  0  0  0  0  0  0  0
    4.6604   -4.9496    6.3528 N   0  0  0  0  0  0  0  0  0  0  0  0
    2.2897   -2.8267    1.3513 C   0  0  1  0  0  0  0  0  0  0  0  0
    1.4146   -2.4963    0.1099 C   0  0  1  0  0  0  0  0  0  0  0  0
    0.6234   -3.6892   -0.0468 C   0  0  0  0  0  0  0  0  0  0  0  0
    0.8091   -4.5866    0.9164 C   0  0  0  0  0  0  0  0  0  0  0  0
    0.5614   -1.2065    0.2634 C   0  0  2  0  0  0  0  0  0  0  0  0
   -0.2447   -0.9807   -0.8898 O   0  0  0  0  0  0  0  0  0  0  0  0
   -0.8212   -3.3129    2.8371 H   0  0  0  0  0  0  0  0  0  0  0  0
    2.5485   -4.8994    1.9778 H   0  0  0  0  0  0  0  0  0  0  0  0
   -0.4979   -3.6177    7.6852 H   0  0  0  0  0  0  0  0  0  0  0  0
    1.7557   -2.4811    9.2102 H   0  0  0  0  0  0  0  0  0  0  0  0
    1.3429   -0.1776    8.3955 H   0  0  0  0  0  0  0  0  0  0  0  0
    0.0348   -0.8077    7.1938 H   0  0  0  0  0  0  0  0  0  0  0  0
   -1.2776   -1.7284    9.0587 H   0  0  0  0  0  0  0  0  0  0  0  0
   -0.0007   -1.0758   10.2835 H   0  0  0  0  0  0  0  0  0  0  0  0
    5.2815   -5.1912    5.6467 H   0  0  0  0  0  0  0  0  0  0  0  0
    4.9437   -4.9854    7.2811 H   0  0  0  0  0  0  0  0  0  0  0  0
    2.2661   -2.0259    2.0959 H   0  0  0  0  0  0  0  0  0  0  0  0
    3.3336   -2.9548    1.0437 H   0  0  0  0  0  0  0  0  0  0  0  0
    2.0524   -2.3831   -0.7722 H   0  0  0  0  0  0  0  0  0  0  0  0
   -0.0001   -3.8356   -0.8072 H   0  0  0  0  0  0  0  0  0  0  0  0
    0.3384   -5.4621    0.9392 H   0  0  0  0  0  0  0  0  0  0  0  0
    1.2211   -0.3439    0.3850 H   0  0  0  0  0  0  0  0  0  0  0  0
   -0.0880   -1.2703    1.1397 H   0  0  0  0  0  0  0  0  0  0  0  0
   -0.7434   -0.1579   -0.6969 H   0  0  0  0  0  0  0  0  0  0  0  0
  1  6  2  0  0  0  0 
  2  3  2  0  0  0  0 
  3  4  1  0  0  0  0 
  4  5  2  0  0  0  0 
  5  6  1  0  0  0  0 
  1  9  1  0  0  0  0 
  1  2  1  0  0  0  0 
  2  7  1  0  0  0  0 
  7  8  1  0  0  0  0 
  8  9  2  0  0  0  0 
 10  7  1  0  0  0  0 
  6 11  1  0  0  0  0 
 11 12  1  0  0  0  0 
 12 13  1  0  0  0  0 
 14 12  1  0  0  0  0 
 13 14  1  0  0  0  0 
  4 15  1  0  0  0  0 
 19 10  1  0  0  0  0 
 16 10  1  0  0  0  0 
 16 17  1  0  0  0  0 
 17 18  1  0  0  0  0 
 18 19  2  0  0  0  0 
 17 20  1  0  0  0  0 
 20 21  1  0  0  0  0 
  8 22  1  0  0  0  0 
 10 23  1  0  0  0  0 
 11 24  1  0  0  0  0 
 12 25  1  0  0  0  0 
 13 26  1  0  0  0  0 
 13 27  1  0  0  0  0 
 14 28  1  0  0  0  0 
 14 29  1  0  0  0  0 
 15 30  1  0  0  0  0 
 15 31  1  0  0  0  0 
 16 32  1  0  0  0  0 
 16 33  1  0  0  0  0 
 17 34  1  0  0  0  0 
 18 35  1  0  0  0  0 
 19 36  1  0  0  0  0 
 20 37  1  0  0  0  0 
 20 38  1  0  0  0  0 
 21 39  1  0  0  0  0 
M  END
> <cdk:Title>
abacavir

> <Conformer>
7

> <SuperDrugID>
SD000013

$$$$
abacavir
  CDK     0628171801

 39 42  0  0  0  0  0  0  0  0999 V2000
    5.8204    0.0752    1.4081 C   0  0  0  0  0  0  0  0  0  0  0  0
    5.4208   -1.2520    1.3227 C   0  0  0  0  0  0  0  0  0  0  0  0
    6.2436   -2.1938    0.7927 N   0  0  0  0  0  0  0  0  0  0  0  0
    7.4690   -1.8271    0.3199 C   0  0  0  0  0  0  0  0  0  0  0  0
    7.8613   -0.5209    0.3626 N   0  0  0  0  0  0  0  0  0  0  0  0
    7.0707    0.4529    0.8983 C   0  0  0  0  0  0  0  0  0  0  0  0
    4.1610   -1.3270    1.7906 N   0  0  0  0  0  0  0  0  0  0  0  0
    3.8322   -0.0643    2.1603 C   0  0  0  0  0  0  0  0  0  0  0  0
    4.8347    0.8040    1.9438 N   0  0  0  0  0  0  0  0  0  0  0  0
    3.3212   -2.5024    1.8022 C   0  0  2  0  0  0  0  0  0  0  0  0
    7.4181    1.7572    0.8920 N   0  0  0  0  0  0  0  0  0  0  0  0
    7.8784    2.3924   -0.2910 C   0  0  1  0  0  0  0  0  0  0  0  0
    6.7375    2.9790   -1.1415 C   0  0  1  0  0  0  0  0  0  0  0  0
    7.7177    3.9127   -0.4239 C   0  0  1  0  0  0  0  0  0  0  0  0
    8.2810   -2.7516   -0.2123 N   0  0  0  0  0  0  0  0  0  0  0  0
    2.4189   -2.5901    0.5402 C   0  0  1  0  0  0  0  0  0  0  0  0
    0.9542   -2.4179    1.0337 C   0  0  1  0  0  0  0  0  0  0  0  0
    1.0999   -2.4491    2.4662 C   0  0  0  0  0  0  0  0  0  0  0  0
    2.3635   -2.5175    2.8779 C   0  0  0  0  0  0  0  0  0  0  0  0
    0.2477   -1.1311    0.5233 C   0  0  2  0  0  0  0  0  0  0  0  0
    0.1133   -1.1727   -0.8944 O   0  0  0  0  0  0  0  0  0  0  0  0
    2.9301    0.2174    2.5459 H   0  0  0  0  0  0  0  0  0  0  0  0
    3.9399   -3.4050    1.8806 H   0  0  0  0  0  0  0  0  0  0  0  0
    7.2390    2.2980    1.6764 H   0  0  0  0  0  0  0  0  0  0  0  0
    8.6999    1.9500   -0.8590 H   0  0  0  0  0  0  0  0  0  0  0  0
    6.8576    2.8893   -2.2215 H   0  0  0  0  0  0  0  0  0  0  0  0
    5.7310    2.9516   -0.7123 H   0  0  0  0  0  0  0  0  0  0  0  0
    7.3188    4.4313    0.4480 H   0  0  0  0  0  0  0  0  0  0  0  0
    8.4456    4.4173   -1.0636 H   0  0  0  0  0  0  0  0  0  0  0  0
    7.9833   -3.6727   -0.2820 H   0  0  0  0  0  0  0  0  0  0  0  0
    9.1640   -2.5037   -0.5330 H   0  0  0  0  0  0  0  0  0  0  0  0
    2.6942   -1.8361   -0.2037 H   0  0  0  0  0  0  0  0  0  0  0  0
    2.5364   -3.5723    0.0690 H   0  0  0  0  0  0  0  0  0  0  0  0
    0.3563   -3.2837    0.7310 H   0  0  0  0  0  0  0  0  0  0  0  0
    0.3285   -2.4294    3.0938 H   0  0  0  0  0  0  0  0  0  0  0  0
    2.6200   -2.5579    3.8376 H   0  0  0  0  0  0  0  0  0  0  0  0
    0.8198   -0.2421    0.7954 H   0  0  0  0  0  0  0  0  0  0  0  0
   -0.7521   -1.0485    0.9559 H   0  0  0  0  0  0  0  0  0  0  0  0
   -0.2954   -0.3165   -1.1407 H   0  0  0  0  0  0  0  0  0  0  0  0
  1  6  2  0  0  0  0 
  2  3  2  0  0  0  0 
  3  4  1  0  0  0  0 
  4  5  2  0  0  0  0 
  5  6  1  0  0  0  0 
  1  9  1  0  0  0  0 
  1  2  1  0  0  0  0 
  2  7  1  0  0  0  0 
  7  8  1  0  0  0  0 
  8  9  2  0  0  0  0 
 10  7  1  0  0  0  0 
  6 11  1  0  0  0  0 
 11 12  1  0  0  0  0 
 12 13  1  0  0  0  0 
 14 12  1  0  0  0  0 
 13 14  1  0  0  0  0 
  4 15  1  0  0  0  0 
 19 10  1  0  0  0  0 
 16 10  1  0  0  0  0 
 16 17  1  0  0  0  0 
 17 18  1  0  0  0  0 
 18 19  2  0  0  0  0 
 17 20  1  0  0  0  0 
 20 21  1  0  0  0  0 
  8 22  1  0  0  0  0 
 10 23  1  0  0  0  0 
 11 24  1  0  0  0  0 
 12 25  1  0  0  0  0 
 13 26  1  0  0  0  0 
 13 27  1  0  0  0  0 
 14 28  1  0  0  0  0 
 14 29  1  0  0  0  0 
 15 30  1  0  0  0  0 
 15 31  1  0  0  0  0 
 16 32  1  0  0  0  0 
 16 33  1  0  0  0  0 
 17 34  1  0  0  0  0 
 18 35  1  0  0  0  0 
 19 36  1  0  0  0  0 
 20 37  1  0  0  0  0 
 20 38  1  0  0  0  0 
 21 39  1  0  0  0  0 
M  END
> <cdk:Title>
abacavir

> <Conformer>
8

> <SuperDrugID>
SD000013

$$$$
abacavir
  CDK     0628171801

 39 42  0  0  0  0  0  0  0  0999 V2000
    3.7972   -2.4846   -3.4712 C   0  0  0  0  0  0  0  0  0  0  0  0
    3.9878   -2.8830   -2.1540 C   0  0  0  0  0  0  0  0  0  0  0  0
    4.5592   -4.0807   -1.8645 N   0  0  0  0  0  0  0  0  0  0  0  0
    4.9354   -4.9089   -2.8799 C   0  0  0  0  0  0  0  0  0  0  0  0
    4.7102   -4.5542   -4.1773 N   0  0  0  0  0  0  0  0  0  0  0  0
    4.1459   -3.3575   -4.5109 C   0  0  0  0  0  0  0  0  0  0  0  0
    3.4885   -1.9153   -1.3641 N   0  0  0  0  0  0  0  0  0  0  0  0
    3.0406   -0.9509   -2.2053 C   0  0  0  0  0  0  0  0  0  0  0  0
    3.2210   -1.2788   -3.4962 N   0  0  0  0  0  0  0  0  0  0  0  0
    3.3912   -1.9544    0.0768 C   0  0  2  0  0  0  0  0  0  0  0  0
    3.8572   -3.0179   -5.7840 N   0  0  0  0  0  0  0  0  0  0  0  0
    3.1667   -3.9114   -6.6441 C   0  0  1  0  0  0  0  0  0  0  0  0
    1.6374   -3.7660   -6.5507 C   0  0  1  0  0  0  0  0  0  0  0  0
    2.3744   -3.3304   -7.8219 C   0  0  1  0  0  0  0  0  0  0  0  0
    5.5163   -6.0844   -2.5978 N   0  0  0  0  0  0  0  0  0  0  0  0
    2.0226   -2.5084    0.5644 C   0  0  1  0  0  0  0  0  0  0  0  0
    1.2919   -1.3215    1.2539 C   0  0  1  0  0  0  0  0  0  0  0  0
    2.3164   -0.3120    1.3146 C   0  0  0  0  0  0  0  0  0  0  0  0
    3.4450   -0.6561    0.6996 C   0  0  0  0  0  0  0  0  0  0  0  0
   -0.0084   -0.8478    0.5442 C   0  0  2  0  0  0  0  0  0  0  0  0
    0.2060   -0.4733   -0.8122 O   0  0  0  0  0  0  0  0  0  0  0  0
    2.6039   -0.0756   -1.9151 H   0  0  0  0  0  0  0  0  0  0  0  0
    4.2050   -2.5632    0.4885 H   0  0  0  0  0  0  0  0  0  0  0  0
    4.0129   -2.1070   -6.0786 H   0  0  0  0  0  0  0  0  0  0  0  0
    3.5265   -4.9364   -6.7672 H   0  0  0  0  0  0  0  0  0  0  0  0
    1.0658   -4.6929   -6.6145 H   0  0  0  0  0  0  0  0  0  0  0  0
    1.2510   -2.9440   -5.9406 H   0  0  0  0  0  0  0  0  0  0  0  0
    2.4557   -2.2528   -7.9731 H   0  0  0  0  0  0  0  0  0  0  0  0
    2.2517   -3.9856   -8.6861 H   0  0  0  0  0  0  0  0  0  0  0  0
    5.6425   -6.3496   -1.6728 H   0  0  0  0  0  0  0  0  0  0  0  0
    5.8099   -6.6708   -3.3152 H   0  0  0  0  0  0  0  0  0  0  0  0
    1.4382   -2.9323   -0.2568 H   0  0  0  0  0  0  0  0  0  0  0  0
    2.1890   -3.3099    1.2932 H   0  0  0  0  0  0  0  0  0  0  0  0
    1.0287   -1.6019    2.2786 H   0  0  0  0  0  0  0  0  0  0  0  0
    2.1974    0.5593    1.7790 H   0  0  0  0  0  0  0  0  0  0  0  0
    4.2439   -0.0653    0.6619 H   0  0  0  0  0  0  0  0  0  0  0  0
   -0.4369    0.0058    1.0740 H   0  0  0  0  0  0  0  0  0  0  0  0
   -0.7420   -1.6554    0.5615 H   0  0  0  0  0  0  0  0  0  0  0  0
   -0.6810   -0.2320   -1.1533 H   0  0  0  0  0  0  0  0  0  0  0  0
  1  6  2  0  0  0  0 
  2  3  2  0  0  0  0 
  3  4  1  0  0  0  0 
  4  5  2  0  0  0  0 
  5  6  1  0  0  0  0 
  1  9  1  0  0  0  0 
  1  2  1  0  0  0  0 
  2  7  1  0  0  0  0 
  7  8  1  0  0  0  0 
  8  9  2  0  0  0  0 
 10  7  1  0  0  0  0 
  6 11  1  0  0  0  0 
 11 12  1  0  0  0  0 
 12 13  1  0  0  0  0 
 14 12  1  0  0  0  0 
 13 14  1  0  0  0  0 
  4 15  1  0  0  0  0 
 19 10  1  0  0  0  0 
 16 10  1  0  0  0  0 
 16 17  1  0  0  0  0 
 17 18  1  0  0  0  0 
 18 19  2  0  0  0  0 
 17 20  1  0  0  0  0 
 20 21  1  0  0  0  0 
  8 22  1  0  0  0  0 
 10 23  1  0  0  0  0 
 11 24  1  0  0  0  0 
 12 25  1  0  0  0  0 
 13 26  1  0  0  0  0 
 13 27  1  0  0  0  0 
 14 28  1  0  0  0  0 
 14 29  1  0  0  0  0 
 15 30  1  0  0  0  0 
 15 31  1  0  0  0  0 
 16 32  1  0  0  0  0 
 16 33  1  0  0  0  0 
 17 34  1  0  0  0  0 
 18 35  1  0  0  0  0 
 19 36  1  0  0  0  0 
 20 37  1  0  0  0  0 
 20 38  1  0  0  0  0 
 21 39  1  0  0  0  0 
M  END
> <cdk:Title>
abacavir

> <Conformer>
9

> <SuperDrugID>
SD000013

$$$$
abacavir
  CDK     0628171801

 39 42  0  0  0  0  0  0  0  0999 V2000
    3.2071    1.8816    3.2861 C   0  0  0  0  0  0  0  0  0  0  0  0
    2.4477    0.7279    3.1360 C   0  0  0  0  0  0  0  0  0  0  0  0
    1.1237    0.7236    3.4343 N   0  0  0  0  0  0  0  0  0  0  0  0
    0.5259    1.8546    3.8958 C   0  0  0  0  0  0  0  0  0  0  0  0
    1.2543    3.0002    4.0361 N   0  0  0  0  0  0  0  0  0  0  0  0
    2.5799    3.0673    3.7199 C   0  0  0  0  0  0  0  0  0  0  0  0
    3.2631   -0.2489    2.6890 N   0  0  0  0  0  0  0  0  0  0  0  0
    4.4941    0.3074    2.6080 C   0  0  0  0  0  0  0  0  0  0  0  0
    4.4782    1.6066    2.9629 N   0  0  0  0  0  0  0  0  0  0  0  0
    2.9348   -1.6018    2.3032 C   0  0  2  0  0  0  0  0  0  0  0  0
    3.2081    4.2664    3.7952 N   0  0  0  0  0  0  0  0  0  0  0  0
    3.9328    4.8159    2.6964 C   0  0  1  0  0  0  0  0  0  0  0  0
    3.0361    5.5802    1.7066 C   0  0  1  0  0  0  0  0  0  0  0  0
    4.0569    6.3409    2.5586 C   0  0  1  0  0  0  0  0  0  0  0  0
   -0.7813    1.8273    4.2064 N   0  0  0  0  0  0  0  0  0  0  0  0
    2.4041   -1.6869    0.8473 C   0  0  1  0  0  0  0  0  0  0  0  0
    0.9128   -2.1042    0.9568 C   0  0  1  0  0  0  0  0  0  0  0  0
    0.7794   -2.4471    2.3494 C   0  0  0  0  0  0  0  0  0  0  0  0
    1.8683   -2.1888    3.0695 C   0  0  0  0  0  0  0  0  0  0  0  0
   -0.0876   -1.0059    0.5025 C   0  0  2  0  0  0  0  0  0  0  0  0
    0.0655   -0.7585   -0.8915 O   0  0  0  0  0  0  0  0  0  0  0  0
    5.3390   -0.1837    2.3011 H   0  0  0  0  0  0  0  0  0  0  0  0
    3.8147   -2.2480    2.4089 H   0  0  0  0  0  0  0  0  0  0  0  0
    3.0711    4.8165    4.5816 H   0  0  0  0  0  0  0  0  0  0  0  0
    4.7269    4.2348    2.2227 H   0  0  0  0  0  0  0  0  0  0  0  0
    3.2908    5.4858    0.6491 H   0  0  0  0  0  0  0  0  0  0  0  0
    1.9917    5.7347    1.9923 H   0  0  0  0  0  0  0  0  0  0  0  0
    3.6338    6.9478    3.3600 H   0  0  0  0  0  0  0  0  0  0  0  0
    4.9133    6.7214    1.9980 H   0  0  0  0  0  0  0  0  0  0  0  0
   -1.2896    1.0051    4.1023 H   0  0  0  0  0  0  0  0  0  0  0  0
   -1.2225    2.6262    4.5356 H   0  0  0  0  0  0  0  0  0  0  0  0
    2.5339   -0.7417    0.3126 H   0  0  0  0  0  0  0  0  0  0  0  0
    2.9568   -2.4538    0.2968 H   0  0  0  0  0  0  0  0  0  0  0  0
    0.7323   -3.0058    0.3623 H   0  0  0  0  0  0  0  0  0  0  0  0
   -0.0429   -2.8536    2.7340 H   0  0  0  0  0  0  0  0  0  0  0  0
    1.9396   -2.3781    4.0420 H   0  0  0  0  0  0  0  0  0  0  0  0
    0.0763   -0.0690    1.0390 H   0  0  0  0  0  0  0  0  0  0  0  0
   -1.1147   -1.3333    0.6802 H   0  0  0  0  0  0  0  0  0  0  0  0
   -0.6043   -0.0749   -1.1017 H   0  0  0  0  0  0  0  0  0  0  0  0
  1  6  2  0  0  0  0 
  2  3  2  0  0  0  0 
  3  4  1  0  0  0  0 
  4  5  2  0  0  0  0 
  5  6  1  0  0  0  0 
  1  9  1  0  0  0  0 
  1  2  1  0  0  0  0 
  2  7  1  0  0  0  0 
  7  8  1  0  0  0  0 
  8  9  2  0  0  0  0 
 10  7  1  0  0  0  0 
  6 11  1  0  0  0  0 
 11 12  1  0  0  0  0 
 12 13  1  0  0  0  0 
 14 12  1  0  0  0  0 
 13 14  1  0  0  0  0 
  4 15  1  0  0  0  0 
 19 10  1  0  0  0  0 
 16 10  1  0  0  0  0 
 16 17  1  0  0  0  0 
 17 18  1  0  0  0  0 
 18 19  2  0  0  0  0 
 17 20  1  0  0  0  0 
 20 21  1  0  0  0  0 
  8 22  1  0  0  0  0 
 10 23  1  0  0  0  0 
 11 24  1  0  0  0  0 
 12 25  1  0  0  0  0 
 13 26  1  0  0  0  0 
 13 27  1  0  0  0  0 
 14 28  1  0  0  0  0 
 14 29  1  0  0  0  0 
 15 30  1  0  0  0  0 
 15 31  1  0  0  0  0 
 16 32  1  0  0  0  0 
 16 33  1  0  0  0  0 
 17 34  1  0  0  0  0 
 18 35  1  0  0  0  0 
 19 36  1  0  0  0  0 
 20 37  1  0  0  0  0 
 20 38  1  0  0  0  0 
 21 39  1  0  0  0  0 
M  END
> <cdk:Title>
abacavir

> <Conformer>
10

> <SuperDrugID>
SD000013

$$$$
