(S)-nitrendipine
  CDK     0628171802

 46 47  0  0  0  0  0  0  0  0999 V2000
   -7.3669    3.8305    1.6525 C   0  0  0  0  0  0  0  0  0  0  0  0
   -8.1675    4.5584    2.4870 O   0  0  0  0  0  0  0  0  0  0  0  0
   -6.9486    4.4041    0.6167 O   0  0  0  0  0  0  0  0  0  0  0  0
   -6.9930    2.4983    1.9429 C   0  0  0  0  0  0  0  0  0  0  0  0
   -8.6040    5.9158    2.3538 C   0  0  1  0  0  0  0  0  0  0  0  0
   -5.8529    1.9038    1.1886 C   0  0  2  0  0  0  0  0  0  0  0  0
   -7.5918    1.7293    2.8917 C   0  0  0  0  0  0  0  0  0  0  0  0
   -9.4775    6.2833    3.5676 C   0  0  0  0  0  0  0  0  0  0  0  0
   -5.6037    0.4469    1.3632 C   0  0  0  0  0  0  0  0  0  0  0  0
   -4.5900    2.6606    1.5014 C   0  0  0  0  0  0  0  0  0  0  0  0
   -8.6936    2.1414    3.7563 C   0  0  0  0  0  0  0  0  0  0  0  0
   -7.1736    0.4726    3.0901 N   0  0  0  0  0  0  0  0  0  0  0  0
   -4.6913   -0.1932    0.4958 C   0  0  0  0  0  0  0  0  0  0  0  0
   -6.2927   -0.2005    2.3386 C   0  0  0  0  0  0  0  0  0  0  0  0
   -4.1400    2.8206    2.8370 C   0  0  0  0  0  0  0  0  0  0  0  0
   -3.8268    3.2435    0.4646 C   0  0  0  0  0  0  0  0  0  0  0  0
   -4.0252   -1.3389    0.8398 O   0  0  0  0  0  0  0  0  0  0  0  0
   -4.4529    0.2926   -0.6370 O   0  0  0  0  0  0  0  0  0  0  0  0
   -6.1925   -1.6235    2.6445 C   0  0  0  0  0  0  0  0  0  0  0  0
   -2.9924    3.5899    3.1629 C   0  0  0  0  0  0  0  0  0  0  0  0
   -2.6534    3.9553    0.7538 C   0  0  0  0  0  0  0  0  0  0  0  0
   -3.1371   -2.0999    0.0117 C   0  0  0  0  0  0  0  0  0  0  0  0
   -2.6213    3.8034    4.4393 N   0  0  0  0  0  0  0  0  0  0  0  0
   -2.2488    4.1361    2.0868 C   0  0  0  0  0  0  0  0  0  0  0  0
   -1.5673    4.4413    4.7514 O   0  0  0  0  0  0  0  0  0  0  0  0
   -3.2456    3.4355    5.3561 O   0  0  0  0  0  0  0  0  0  0  0  0
   -7.7351    6.5783    2.3266 H   0  0  0  0  0  0  0  0  0  0  0  0
   -9.1825    6.0371    1.4327 H   0  0  0  0  0  0  0  0  0  0  0  0
   -6.1224    2.0268    0.1325 H   0  0  0  0  0  0  0  0  0  0  0  0
   -9.8167    7.3146    3.4747 H   0  0  0  0  0  0  0  0  0  0  0  0
  -10.3493    5.6286    3.6247 H   0  0  0  0  0  0  0  0  0  0  0  0
   -8.9004    6.1871    4.4898 H   0  0  0  0  0  0  0  0  0  0  0  0
   -9.5328    2.4984    3.1566 H   0  0  0  0  0  0  0  0  0  0  0  0
   -9.0703    1.3228    4.3752 H   0  0  0  0  0  0  0  0  0  0  0  0
   -8.3648    2.9329    4.4342 H   0  0  0  0  0  0  0  0  0  0  0  0
   -7.5705   -0.0083    3.8352 H   0  0  0  0  0  0  0  0  0  0  0  0
   -4.6742    2.3773    3.5881 H   0  0  0  0  0  0  0  0  0  0  0  0
   -4.1161    3.1477   -0.5125 H   0  0  0  0  0  0  0  0  0  0  0  0
   -6.9371   -1.9472    3.3766 H   0  0  0  0  0  0  0  0  0  0  0  0
   -6.3547   -2.2128    1.7407 H   0  0  0  0  0  0  0  0  0  0  0  0
   -5.2097   -1.8497    3.0593 H   0  0  0  0  0  0  0  0  0  0  0  0
   -2.0962    4.3474   -0.0094 H   0  0  0  0  0  0  0  0  0  0  0  0
   -3.6653   -2.4732   -0.8678 H   0  0  0  0  0  0  0  0  0  0  0  0
   -2.7607   -2.9504    0.5788 H   0  0  0  0  0  0  0  0  0  0  0  0
   -2.2957   -1.4838   -0.3051 H   0  0  0  0  0  0  0  0  0  0  0  0
   -1.4000    4.6796    2.2594 H   0  0  0  0  0  0  0  0  0  0  0  0
  1  2  1  0  0  0  0 
  1  3  2  0  0  0  0 
  1  4  1  0  0  0  0 
  2  5  1  0  0  0  0 
  6  4  1  0  0  0  0 
  4  7  2  0  0  0  0 
  5  8  1  0  0  0  0 
  6  9  1  0  0  0  0 
  6 10  1  0  0  0  0 
  7 11  1  0  0  0  0 
  7 12  1  0  0  0  0 
  9 13  1  0  0  0  0 
  9 14  2  0  0  0  0 
 10 15  2  0  0  0  0 
 10 16  1  0  0  0  0 
 12 14  1  0  0  0  0 
 13 17  1  0  0  0  0 
 13 18  2  0  0  0  0 
 14 19  1  0  0  0  0 
 15 20  1  0  0  0  0 
 16 21  2  0  0  0  0 
 17 22  1  0  0  0  0 
 20 23  1  0  0  0  0 
 20 24  2  0  0  0  0 
 21 24  1  0  0  0  0 
 23 25  1  0  0  0  0 
 23 26  2  0  0  0  0 
 27  5  1  0  0  0  0 
 28  5  1  0  0  0  0 
  6 29  1  0  0  0  0 
 30  8  1  0  0  0  0 
 31  8  1  0  0  0  0 
 32  8  1  0  0  0  0 
 33 11  1  0  0  0  0 
 34 11  1  0  0  0  0 
 35 11  1  0  0  0  0 
 36 12  1  0  0  0  0 
 37 15  1  0  0  0  0 
 38 16  1  0  0  0  0 
 39 19  1  0  0  0  0 
 40 19  1  0  0  0  0 
 41 19  1  0  0  0  0 
 42 21  1  0  0  0  0 
 43 22  1  0  0  0  0 
 44 22  1  0  0  0  0 
 45 22  1  0  0  0  0 
 46 24  1  0  0  0  0 
M  CHG  1  23   1
M  CHG  1  25  -1
M  END
> <cdk:Title>
(S)-nitrendipine

> <Conformer>
1

> <SuperDrugID>
SD000003

$$$$
(S)-nitrendipine
  CDK     0628171802

 46 47  0  0  0  0  0  0  0  0999 V2000
   -4.5287   -0.3079    0.6810 C   0  0  0  0  0  0  0  0  0  0  0  0
   -3.9152   -1.1430   -0.2063 O   0  0  0  0  0  0  0  0  0  0  0  0
   -4.2021   -0.4130    1.8891 O   0  0  0  0  0  0  0  0  0  0  0  0
   -5.4748    0.6568    0.2691 C   0  0  0  0  0  0  0  0  0  0  0  0
   -2.9414   -2.1605    0.0450 C   0  0  1  0  0  0  0  0  0  0  0  0
   -5.8686    1.7174    1.2394 C   0  0  2  0  0  0  0  0  0  0  0  0
   -6.0431    0.6928   -0.9670 C   0  0  0  0  0  0  0  0  0  0  0  0
   -2.5400   -2.7991   -1.2971 C   0  0  0  0  0  0  0  0  0  0  0  0
   -7.0249    2.5788    0.8725 C   0  0  0  0  0  0  0  0  0  0  0  0
   -4.6894    2.6022    1.5561 C   0  0  0  0  0  0  0  0  0  0  0  0
   -5.7787   -0.2383   -2.0625 C   0  0  0  0  0  0  0  0  0  0  0  0
   -6.9387    1.6453   -1.2621 N   0  0  0  0  0  0  0  0  0  0  0  0
   -7.5700    3.4254    1.8598 C   0  0  0  0  0  0  0  0  0  0  0  0
   -7.4983    2.5016   -0.3982 C   0  0  0  0  0  0  0  0  0  0  0  0
   -4.2874    2.8377    2.8947 C   0  0  0  0  0  0  0  0  0  0  0  0
   -3.9591    3.2397    0.5246 C   0  0  0  0  0  0  0  0  0  0  0  0
   -8.1982    4.6017    1.5543 O   0  0  0  0  0  0  0  0  0  0  0  0
   -7.4680    3.1247    3.0742 O   0  0  0  0  0  0  0  0  0  0  0  0
   -8.6093    3.2785   -0.9415 C   0  0  0  0  0  0  0  0  0  0  0  0
   -3.2018    3.6945    3.2258 C   0  0  0  0  0  0  0  0  0  0  0  0
   -2.8597    4.0606    0.8189 C   0  0  0  0  0  0  0  0  0  0  0  0
   -8.7964    5.5284    2.4670 C   0  0  0  0  0  0  0  0  0  0  0  0
   -2.8605    3.9487    4.5039 N   0  0  0  0  0  0  0  0  0  0  0  0
   -2.4869    4.2851    2.1534 C   0  0  0  0  0  0  0  0  0  0  0  0
   -1.8427    4.6454    4.8176 O   0  0  0  0  0  0  0  0  0  0  0  0
   -3.4805    3.5609    5.4159 O   0  0  0  0  0  0  0  0  0  0  0  0
   -2.0642   -1.7208    0.5271 H   0  0  0  0  0  0  0  0  0  0  0  0
   -3.3640   -2.9248    0.7006 H   0  0  0  0  0  0  0  0  0  0  0  0
   -6.1908    1.1707    2.1337 H   0  0  0  0  0  0  0  0  0  0  0  0
   -1.8201   -3.6026   -1.1326 H   0  0  0  0  0  0  0  0  0  0  0  0
   -3.4240   -3.2108   -1.7890 H   0  0  0  0  0  0  0  0  0  0  0  0
   -2.0928   -2.0461   -1.9485 H   0  0  0  0  0  0  0  0  0  0  0  0
   -5.9985   -1.2611   -1.7487 H   0  0  0  0  0  0  0  0  0  0  0  0
   -6.3873   -0.0373   -2.9486 H   0  0  0  0  0  0  0  0  0  0  0  0
   -4.7348   -0.1640   -2.3712 H   0  0  0  0  0  0  0  0  0  0  0  0
   -7.2271    1.7031   -2.1881 H   0  0  0  0  0  0  0  0  0  0  0  0
   -4.8067    2.3789    3.6473 H   0  0  0  0  0  0  0  0  0  0  0  0
   -4.2166    3.1006   -0.4550 H   0  0  0  0  0  0  0  0  0  0  0  0
   -8.8718    2.9746   -1.9594 H   0  0  0  0  0  0  0  0  0  0  0  0
   -9.5007    3.1478   -0.3243 H   0  0  0  0  0  0  0  0  0  0  0  0
   -8.3406    4.3359   -0.9768 H   0  0  0  0  0  0  0  0  0  0  0  0
   -2.3282    4.4949    0.0604 H   0  0  0  0  0  0  0  0  0  0  0  0
   -9.6002    5.0427    3.0219 H   0  0  0  0  0  0  0  0  0  0  0  0
   -9.2117    6.3616    1.9013 H   0  0  0  0  0  0  0  0  0  0  0  0
   -8.0542    5.9146    3.1674 H   0  0  0  0  0  0  0  0  0  0  0  0
   -1.6838    4.8934    2.3316 H   0  0  0  0  0  0  0  0  0  0  0  0
  1  2  1  0  0  0  0 
  1  3  2  0  0  0  0 
  1  4  1  0  0  0  0 
  2  5  1  0  0  0  0 
  6  4  1  0  0  0  0 
  4  7  2  0  0  0  0 
  5  8  1  0  0  0  0 
  6  9  1  0  0  0  0 
  6 10  1  0  0  0  0 
  7 11  1  0  0  0  0 
  7 12  1  0  0  0  0 
  9 13  1  0  0  0  0 
  9 14  2  0  0  0  0 
 10 15  2  0  0  0  0 
 10 16  1  0  0  0  0 
 12 14  1  0  0  0  0 
 13 17  1  0  0  0  0 
 13 18  2  0  0  0  0 
 14 19  1  0  0  0  0 
 15 20  1  0  0  0  0 
 16 21  2  0  0  0  0 
 17 22  1  0  0  0  0 
 20 23  1  0  0  0  0 
 20 24  2  0  0  0  0 
 21 24  1  0  0  0  0 
 23 25  1  0  0  0  0 
 23 26  2  0  0  0  0 
 27  5  1  0  0  0  0 
 28  5  1  0  0  0  0 
  6 29  1  0  0  0  0 
 30  8  1  0  0  0  0 
 31  8  1  0  0  0  0 
 32  8  1  0  0  0  0 
 33 11  1  0  0  0  0 
 34 11  1  0  0  0  0 
 35 11  1  0  0  0  0 
 36 12  1  0  0  0  0 
 37 15  1  0  0  0  0 
 38 16  1  0  0  0  0 
 39 19  1  0  0  0  0 
 40 19  1  0  0  0  0 
 41 19  1  0  0  0  0 
 42 21  1  0  0  0  0 
 43 22  1  0  0  0  0 
 44 22  1  0  0  0  0 
 45 22  1  0  0  0  0 
 46 24  1  0  0  0  0 
M  CHG  1  23   1
M  CHG  1  25  -1
M  END
> <cdk:Title>
(S)-nitrendipine

> <Conformer>
2

> <SuperDrugID>
SD000003

$$$$
(S)-nitrendipine
  CDK     0628171802

 46 47  0  0  0  0  0  0  0  0999 V2000
   -2.0032    1.3156   -0.2414 C   0  0  0  0  0  0  0  0  0  0  0  0
   -0.6595    1.0798   -0.1815 O   0  0  0  0  0  0  0  0  0  0  0  0
   -2.7636    0.3342   -0.0572 O   0  0  0  0  0  0  0  0  0  0  0  0
   -2.5312    2.6047   -0.4686 C   0  0  0  0  0  0  0  0  0  0  0  0
    0.0175   -0.1575    0.0564 C   0  0  1  0  0  0  0  0  0  0  0  0
   -3.9726    2.8426   -0.1699 C   0  0  2  0  0  0  0  0  0  0  0  0
   -1.7966    3.6569   -0.9211 C   0  0  0  0  0  0  0  0  0  0  0  0
    1.5370    0.0931    0.0350 C   0  0  0  0  0  0  0  0  0  0  0  0
   -4.5535    4.1446   -0.5973 C   0  0  0  0  0  0  0  0  0  0  0  0
   -4.2202    2.6497    1.3014 C   0  0  0  0  0  0  0  0  0  0  0  0
   -0.3700    3.6339   -1.2409 C   0  0  0  0  0  0  0  0  0  0  0  0
   -2.3869    4.8453   -1.1133 N   0  0  0  0  0  0  0  0  0  0  0  0
   -5.9531    4.3131   -0.5424 C   0  0  0  0  0  0  0  0  0  0  0  0
   -3.7012    5.1002   -1.0523 C   0  0  0  0  0  0  0  0  0  0  0  0
   -3.4787    3.3728    2.2705 C   0  0  0  0  0  0  0  0  0  0  0  0
   -5.1932    1.7303    1.7557 C   0  0  0  0  0  0  0  0  0  0  0  0
   -6.5467    5.5427   -0.4340 O   0  0  0  0  0  0  0  0  0  0  0  0
   -6.7073    3.3103   -0.5756 O   0  0  0  0  0  0  0  0  0  0  0  0
   -4.0871    6.4229   -1.5356 C   0  0  0  0  0  0  0  0  0  0  0  0
   -3.6445    3.1623    3.6640 C   0  0  0  0  0  0  0  0  0  0  0  0
   -5.4224    1.5482    3.1275 C   0  0  0  0  0  0  0  0  0  0  0  0
   -7.9525    5.8205   -0.4363 C   0  0  0  0  0  0  0  0  0  0  0  0
   -2.8682    3.8011    4.5606 N   0  0  0  0  0  0  0  0  0  0  0  0
   -4.6493    2.2466    4.0691 C   0  0  0  0  0  0  0  0  0  0  0  0
   -1.8797    4.5277    4.2243 O   0  0  0  0  0  0  0  0  0  0  0  0
   -3.0308    3.7191    5.7149 O   0  0  0  0  0  0  0  0  0  0  0  0
   -0.2699   -0.5559    1.0326 H   0  0  0  0  0  0  0  0  0  0  0  0
   -0.2507   -0.8811   -0.7184 H   0  0  0  0  0  0  0  0  0  0  0  0
   -4.5089    2.0804   -0.7487 H   0  0  0  0  0  0  0  0  0  0  0  0
    2.0632   -0.8447    0.2156 H   0  0  0  0  0  0  0  0  0  0  0  0
    1.8461    0.4904   -0.9344 H   0  0  0  0  0  0  0  0  0  0  0  0
    1.8151    0.8056    0.8144 H   0  0  0  0  0  0  0  0  0  0  0  0
   -0.1576    2.8436   -1.9643 H   0  0  0  0  0  0  0  0  0  0  0  0
   -0.0229    4.5725   -1.6828 H   0  0  0  0  0  0  0  0  0  0  0  0
    0.2143    3.4695   -0.3324 H   0  0  0  0  0  0  0  0  0  0  0  0
   -1.8085    5.5896   -1.3461 H   0  0  0  0  0  0  0  0  0  0  0  0
   -2.7902    4.0579    1.9469 H   0  0  0  0  0  0  0  0  0  0  0  0
   -5.7516    1.1908    1.0898 H   0  0  0  0  0  0  0  0  0  0  0  0
   -3.2511    6.9667   -1.9834 H   0  0  0  0  0  0  0  0  0  0  0  0
   -4.8565    6.3317   -2.3038 H   0  0  0  0  0  0  0  0  0  0  0  0
   -4.4606    7.0276   -0.7089 H   0  0  0  0  0  0  0  0  0  0  0  0
   -6.1525    0.9044    3.4407 H   0  0  0  0  0  0  0  0  0  0  0  0
   -8.4038    5.4938   -1.3748 H   0  0  0  0  0  0  0  0  0  0  0  0
   -8.1009    6.8946   -0.3306 H   0  0  0  0  0  0  0  0  0  0  0  0
   -8.4368    5.3093    0.3960 H   0  0  0  0  0  0  0  0  0  0  0  0
   -4.8287    2.0745    5.0610 H   0  0  0  0  0  0  0  0  0  0  0  0
  1  2  1  0  0  0  0 
  1  3  2  0  0  0  0 
  1  4  1  0  0  0  0 
  2  5  1  0  0  0  0 
  6  4  1  0  0  0  0 
  4  7  2  0  0  0  0 
  5  8  1  0  0  0  0 
  6  9  1  0  0  0  0 
  6 10  1  0  0  0  0 
  7 11  1  0  0  0  0 
  7 12  1  0  0  0  0 
  9 13  1  0  0  0  0 
  9 14  2  0  0  0  0 
 10 15  2  0  0  0  0 
 10 16  1  0  0  0  0 
 12 14  1  0  0  0  0 
 13 17  1  0  0  0  0 
 13 18  2  0  0  0  0 
 14 19  1  0  0  0  0 
 15 20  1  0  0  0  0 
 16 21  2  0  0  0  0 
 17 22  1  0  0  0  0 
 20 23  1  0  0  0  0 
 20 24  2  0  0  0  0 
 21 24  1  0  0  0  0 
 23 25  1  0  0  0  0 
 23 26  2  0  0  0  0 
 27  5  1  0  0  0  0 
 28  5  1  0  0  0  0 
  6 29  1  0  0  0  0 
 30  8  1  0  0  0  0 
 31  8  1  0  0  0  0 
 32  8  1  0  0  0  0 
 33 11  1  0  0  0  0 
 34 11  1  0  0  0  0 
 35 11  1  0  0  0  0 
 36 12  1  0  0  0  0 
 37 15  1  0  0  0  0 
 38 16  1  0  0  0  0 
 39 19  1  0  0  0  0 
 40 19  1  0  0  0  0 
 41 19  1  0  0  0  0 
 42 21  1  0  0  0  0 
 43 22  1  0  0  0  0 
 44 22  1  0  0  0  0 
 45 22  1  0  0  0  0 
 46 24  1  0  0  0  0 
M  CHG  1  23   1
M  CHG  1  25  -1
M  END
> <cdk:Title>
(S)-nitrendipine

> <Conformer>
3

> <SuperDrugID>
SD000003

$$$$
(S)-nitrendipine
  CDK     0628171802

 46 47  0  0  0  0  0  0  0  0999 V2000
   -5.8815    4.4842   -0.5047 C   0  0  0  0  0  0  0  0  0  0  0  0
   -7.1506    4.8020   -0.8932 O   0  0  0  0  0  0  0  0  0  0  0  0
   -5.2534    5.3406    0.1670 O   0  0  0  0  0  0  0  0  0  0  0  0
   -5.2952    3.2377   -0.8142 C   0  0  0  0  0  0  0  0  0  0  0  0
   -7.8807    6.0112   -0.6635 C   0  0  1  0  0  0  0  0  0  0  0  0
   -4.0383    2.8588   -0.1100 C   0  0  2  0  0  0  0  0  0  0  0  0
   -5.8105    2.3472   -1.7056 C   0  0  0  0  0  0  0  0  0  0  0  0
   -9.2865    5.8647   -1.2728 C   0  0  0  0  0  0  0  0  0  0  0  0
   -3.3165    1.6567   -0.6073 C   0  0  0  0  0  0  0  0  0  0  0  0
   -4.2945    2.6895    1.3663 C   0  0  0  0  0  0  0  0  0  0  0  0
   -7.0345    2.5206   -2.4831 C   0  0  0  0  0  0  0  0  0  0  0  0
   -5.1725    1.1921   -1.9364 N   0  0  0  0  0  0  0  0  0  0  0  0
   -2.0153    1.4076   -0.1223 C   0  0  0  0  0  0  0  0  0  0  0  0
   -3.9488    0.8606   -1.5077 C   0  0  0  0  0  0  0  0  0  0  0  0
   -3.5159    3.3796    2.3292 C   0  0  0  0  0  0  0  0  0  0  0  0
   -5.3128    1.8255    1.8340 C   0  0  0  0  0  0  0  0  0  0  0  0
   -1.4851    0.1484   -0.0537 O   0  0  0  0  0  0  0  0  0  0  0  0
   -1.3011    2.3572    0.2827 O   0  0  0  0  0  0  0  0  0  0  0  0
   -3.4024   -0.3605   -2.0931 C   0  0  0  0  0  0  0  0  0  0  0  0
   -3.7114    3.2118    3.7268 C   0  0  0  0  0  0  0  0  0  0  0  0
   -5.5568    1.6727    3.2075 C   0  0  0  0  0  0  0  0  0  0  0  0
   -0.1790   -0.2172    0.4094 C   0  0  0  0  0  0  0  0  0  0  0  0
   -2.9221    3.8332    4.6238 N   0  0  0  0  0  0  0  0  0  0  0  0
   -4.7636    2.3568    4.1413 C   0  0  0  0  0  0  0  0  0  0  0  0
   -1.8847    4.4873    4.2865 O   0  0  0  0  0  0  0  0  0  0  0  0
   -3.1229    3.8045    5.7756 O   0  0  0  0  0  0  0  0  0  0  0  0
   -7.9605    6.1939    0.4110 H   0  0  0  0  0  0  0  0  0  0  0  0
   -7.3674    6.8531   -1.1354 H   0  0  0  0  0  0  0  0  0  0  0  0
   -3.3546    3.6977   -0.2863 H   0  0  0  0  0  0  0  0  0  0  0  0
   -9.8531    6.7872   -1.1356 H   0  0  0  0  0  0  0  0  0  0  0  0
   -9.2092    5.6526   -2.3406 H   0  0  0  0  0  0  0  0  0  0  0  0
   -9.8190    5.0441   -0.7891 H   0  0  0  0  0  0  0  0  0  0  0  0
   -6.9823    3.4370   -3.0733 H   0  0  0  0  0  0  0  0  0  0  0  0
   -7.2117    1.7006   -3.1834 H   0  0  0  0  0  0  0  0  0  0  0  0
   -7.8941    2.5599   -1.8143 H   0  0  0  0  0  0  0  0  0  0  0  0
   -5.6329    0.5440   -2.4903 H   0  0  0  0  0  0  0  0  0  0  0  0
   -2.7816    4.0109    2.0002 H   0  0  0  0  0  0  0  0  0  0  0  0
   -5.8947    1.3050    1.1737 H   0  0  0  0  0  0  0  0  0  0  0  0
   -4.0412   -0.7691   -2.8809 H   0  0  0  0  0  0  0  0  0  0  0  0
   -2.4280   -0.1623   -2.5422 H   0  0  0  0  0  0  0  0  0  0  0  0
   -3.2995   -1.1298   -1.3267 H   0  0  0  0  0  0  0  0  0  0  0  0
   -6.3116    1.0626    3.5280 H   0  0  0  0  0  0  0  0  0  0  0  0
    0.5846    0.2592   -0.2077 H   0  0  0  0  0  0  0  0  0  0  0  0
   -0.0668   -1.2997    0.3383 H   0  0  0  0  0  0  0  0  0  0  0  0
   -0.0421    0.0811    1.4519 H   0  0  0  0  0  0  0  0  0  0  0  0
   -4.9637    2.2185    5.1348 H   0  0  0  0  0  0  0  0  0  0  0  0
  1  2  1  0  0  0  0 
  1  3  2  0  0  0  0 
  1  4  1  0  0  0  0 
  2  5  1  0  0  0  0 
  6  4  1  0  0  0  0 
  4  7  2  0  0  0  0 
  5  8  1  0  0  0  0 
  6  9  1  0  0  0  0 
  6 10  1  0  0  0  0 
  7 11  1  0  0  0  0 
  7 12  1  0  0  0  0 
  9 13  1  0  0  0  0 
  9 14  2  0  0  0  0 
 10 15  2  0  0  0  0 
 10 16  1  0  0  0  0 
 12 14  1  0  0  0  0 
 13 17  1  0  0  0  0 
 13 18  2  0  0  0  0 
 14 19  1  0  0  0  0 
 15 20  1  0  0  0  0 
 16 21  2  0  0  0  0 
 17 22  1  0  0  0  0 
 20 23  1  0  0  0  0 
 20 24  2  0  0  0  0 
 21 24  1  0  0  0  0 
 23 25  1  0  0  0  0 
 23 26  2  0  0  0  0 
 27  5  1  0  0  0  0 
 28  5  1  0  0  0  0 
  6 29  1  0  0  0  0 
 30  8  1  0  0  0  0 
 31  8  1  0  0  0  0 
 32  8  1  0  0  0  0 
 33 11  1  0  0  0  0 
 34 11  1  0  0  0  0 
 35 11  1  0  0  0  0 
 36 12  1  0  0  0  0 
 37 15  1  0  0  0  0 
 38 16  1  0  0  0  0 
 39 19  1  0  0  0  0 
 40 19  1  0  0  0  0 
 41 19  1  0  0  0  0 
 42 21  1  0  0  0  0 
 43 22  1  0  0  0  0 
 44 22  1  0  0  0  0 
 45 22  1  0  0  0  0 
 46 24  1  0  0  0  0 
M  CHG  1  23   1
M  CHG  1  25  -1
M  END
> <cdk:Title>
(S)-nitrendipine

> <Conformer>
4

> <SuperDrugID>
SD000003

$$$$
(S)-nitrendipine
  CDK     0628171802

 46 47  0  0  0  0  0  0  0  0999 V2000
   -6.0516    4.4027   -0.4864 C   0  0  0  0  0  0  0  0  0  0  0  0
   -7.3246    4.6936   -0.8993 O   0  0  0  0  0  0  0  0  0  0  0  0
   -5.4673    5.2759    0.2003 O   0  0  0  0  0  0  0  0  0  0  0  0
   -5.4075    3.1792   -0.7853 C   0  0  0  0  0  0  0  0  0  0  0  0
   -8.0831    5.9010   -0.7337 C   0  0  1  0  0  0  0  0  0  0  0  0
   -4.1277    2.8562   -0.0888 C   0  0  2  0  0  0  0  0  0  0  0  0
   -5.8826    2.2639   -1.6729 C   0  0  0  0  0  0  0  0  0  0  0  0
   -7.5119    7.0756   -1.5549 C   0  0  0  0  0  0  0  0  0  0  0  0
   -3.3460    1.6972   -0.6043 C   0  0  0  0  0  0  0  0  0  0  0  0
   -4.3655    2.6551    1.3855 C   0  0  0  0  0  0  0  0  0  0  0  0
   -7.1247    2.3703   -2.4307 C   0  0  0  0  0  0  0  0  0  0  0  0
   -5.1846    1.1471   -1.9234 N   0  0  0  0  0  0  0  0  0  0  0  0
   -2.0299    1.5074   -0.1324 C   0  0  0  0  0  0  0  0  0  0  0  0
   -3.9390    0.8810   -1.5143 C   0  0  0  0  0  0  0  0  0  0  0  0
   -3.6174    3.3740    2.3511 C   0  0  0  0  0  0  0  0  0  0  0  0
   -5.3198    1.7186    1.8491 C   0  0  0  0  0  0  0  0  0  0  0  0
   -1.4468    0.2700   -0.0862 O   0  0  0  0  0  0  0  0  0  0  0  0
   -1.3626    2.4841    0.2880 O   0  0  0  0  0  0  0  0  0  0  0  0
   -3.3210   -0.2896   -2.1349 C   0  0  0  0  0  0  0  0  0  0  0  0
   -3.7835    3.1708    3.7473 C   0  0  0  0  0  0  0  0  0  0  0  0
   -5.5376    1.5289    3.2220 C   0  0  0  0  0  0  0  0  0  0  0  0
   -0.1183   -0.0568    0.3341 C   0  0  0  0  0  0  0  0  0  0  0  0
   -3.0250    3.8250    4.6473 N   0  0  0  0  0  0  0  0  0  0  0  0
   -4.7756    2.2445    4.1587 C   0  0  0  0  0  0  0  0  0  0  0  0
   -2.0285    4.5402    4.3127 O   0  0  0  0  0  0  0  0  0  0  0  0
   -3.2186    3.7772    5.7995 O   0  0  0  0  0  0  0  0  0  0  0  0
   -9.1024    5.7056   -1.0756 H   0  0  0  0  0  0  0  0  0  0  0  0
   -8.1216    6.1668    0.3237 H   0  0  0  0  0  0  0  0  0  0  0  0
   -3.4892    3.7322   -0.2577 H   0  0  0  0  0  0  0  0  0  0  0  0
   -8.1608    7.9488   -1.4567 H   0  0  0  0  0  0  0  0  0  0  0  0
   -6.5154    7.3430   -1.1994 H   0  0  0  0  0  0  0  0  0  0  0  0
   -7.4519    6.7984   -2.6091 H   0  0  0  0  0  0  0  0  0  0  0  0
   -7.1190    3.2816   -3.0304 H   0  0  0  0  0  0  0  0  0  0  0  0
   -7.2787    1.5356   -3.1206 H   0  0  0  0  0  0  0  0  0  0  0  0
   -7.9742    2.3813   -1.7465 H   0  0  0  0  0  0  0  0  0  0  0  0
   -5.6132    0.4740   -2.4758 H   0  0  0  0  0  0  0  0  0  0  0  0
   -2.9255    4.0524    2.0253 H   0  0  0  0  0  0  0  0  0  0  0  0
   -5.8697    1.1682    1.1864 H   0  0  0  0  0  0  0  0  0  0  0  0
   -3.9391   -0.7206   -2.9274 H   0  0  0  0  0  0  0  0  0  0  0  0
   -2.3627   -0.0190   -2.5862 H   0  0  0  0  0  0  0  0  0  0  0  0
   -3.1639   -1.0688   -1.3869 H   0  0  0  0  0  0  0  0  0  0  0  0
   -6.2466    0.8644    3.5410 H   0  0  0  0  0  0  0  0  0  0  0  0
    0.6143    0.4453   -0.3009 H   0  0  0  0  0  0  0  0  0  0  0  0
    0.0179   -1.1348    0.2453 H   0  0  0  0  0  0  0  0  0  0  0  0
    0.0397    0.2343    1.3737 H   0  0  0  0  0  0  0  0  0  0  0  0
   -4.9502    2.0730    5.1526 H   0  0  0  0  0  0  0  0  0  0  0  0
  1  2  1  0  0  0  0 
  1  3  2  0  0  0  0 
  1  4  1  0  0  0  0 
  2  5  1  0  0  0  0 
  6  4  1  0  0  0  0 
  4  7  2  0  0  0  0 
  5  8  1  0  0  0  0 
  6  9  1  0  0  0  0 
  6 10  1  0  0  0  0 
  7 11  1  0  0  0  0 
  7 12  1  0  0  0  0 
  9 13  1  0  0  0  0 
  9 14  2  0  0  0  0 
 10 15  2  0  0  0  0 
 10 16  1  0  0  0  0 
 12 14  1  0  0  0  0 
 13 17  1  0  0  0  0 
 13 18  2  0  0  0  0 
 14 19  1  0  0  0  0 
 15 20  1  0  0  0  0 
 16 21  2  0  0  0  0 
 17 22  1  0  0  0  0 
 20 23  1  0  0  0  0 
 20 24  2  0  0  0  0 
 21 24  1  0  0  0  0 
 23 25  1  0  0  0  0 
 23 26  2  0  0  0  0 
 27  5  1  0  0  0  0 
 28  5  1  0  0  0  0 
  6 29  1  0  0  0  0 
 30  8  1  0  0  0  0 
 31  8  1  0  0  0  0 
 32  8  1  0  0  0  0 
 33 11  1  0  0  0  0 
 34 11  1  0  0  0  0 
 35 11  1  0  0  0  0 
 36 12  1  0  0  0  0 
 37 15  1  0  0  0  0 
 38 16  1  0  0  0  0 
 39 19  1  0  0  0  0 
 40 19  1  0  0  0  0 
 41 19  1  0  0  0  0 
 42 21  1  0  0  0  0 
 43 22  1  0  0  0  0 
 44 22  1  0  0  0  0 
 45 22  1  0  0  0  0 
 46 24  1  0  0  0  0 
M  CHG  1  23   1
M  CHG  1  25  -1
M  END
> <cdk:Title>
(S)-nitrendipine

> <Conformer>
5

> <SuperDrugID>
SD000003

$$$$
(S)-nitrendipine
  CDK     0628171802

 46 47  0  0  0  0  0  0  0  0999 V2000
   -2.1611    1.0761   -0.1034 C   0  0  0  0  0  0  0  0  0  0  0  0
   -0.8508    0.6928   -0.0114 O   0  0  0  0  0  0  0  0  0  0  0  0
   -3.0246    0.1819    0.0678 O   0  0  0  0  0  0  0  0  0  0  0  0
   -2.5572    2.4084   -0.3586 C   0  0  0  0  0  0  0  0  0  0  0  0
   -0.3016   -0.6142    0.2128 C   0  0  1  0  0  0  0  0  0  0  0  0
   -3.9794    2.7863   -0.1054 C   0  0  2  0  0  0  0  0  0  0  0  0
   -1.7151    3.3770   -0.8085 C   0  0  0  0  0  0  0  0  0  0  0  0
   -0.5657   -1.5794   -0.9610 C   0  0  0  0  0  0  0  0  0  0  0  0
   -4.4285    4.1163   -0.5982 C   0  0  0  0  0  0  0  0  0  0  0  0
   -4.2820    2.6751    1.3653 C   0  0  0  0  0  0  0  0  0  0  0  0
   -0.2868    3.2172   -1.0733 C   0  0  0  0  0  0  0  0  0  0  0  0
   -2.1923    4.6051   -1.0550 N   0  0  0  0  0  0  0  0  0  0  0  0
   -5.8074    4.4162   -0.5962 C   0  0  0  0  0  0  0  0  0  0  0  0
   -3.4803    4.9741   -1.0585 C   0  0  0  0  0  0  0  0  0  0  0  0
   -3.4982    3.3582    2.3307 C   0  0  0  0  0  0  0  0  0  0  0  0
   -5.3562    1.8785    1.8232 C   0  0  0  0  0  0  0  0  0  0  0  0
   -6.2742    5.7009   -0.5527 O   0  0  0  0  0  0  0  0  0  0  0  0
   -6.6584    3.4943   -0.6273 O   0  0  0  0  0  0  0  0  0  0  0  0
   -3.7327    6.3007   -1.6149 C   0  0  0  0  0  0  0  0  0  0  0  0
   -3.7337    3.2392    3.7253 C   0  0  0  0  0  0  0  0  0  0  0  0
   -5.6509    1.7909    3.1920 C   0  0  0  0  0  0  0  0  0  0  0  0
   -7.6350    6.1375   -0.6263 C   0  0  0  0  0  0  0  0  0  0  0  0
   -2.9266    3.8382    4.6229 N   0  0  0  0  0  0  0  0  0  0  0  0
   -4.8469    2.4589    4.1306 C   0  0  0  0  0  0  0  0  0  0  0  0
   -1.8729    4.4677    4.2886 O   0  0  0  0  0  0  0  0  0  0  0  0
   -3.1257    3.8130    5.7744 O   0  0  0  0  0  0  0  0  0  0  0  0
    0.7767   -0.4942    0.3314 H   0  0  0  0  0  0  0  0  0  0  0  0
   -0.6989   -1.0343    1.1386 H   0  0  0  0  0  0  0  0  0  0  0  0
   -4.5705    2.0570   -0.6721 H   0  0  0  0  0  0  0  0  0  0  0  0
   -0.0535   -2.5285   -0.7892 H   0  0  0  0  0  0  0  0  0  0  0  0
   -1.6330   -1.7783   -1.0627 H   0  0  0  0  0  0  0  0  0  0  0  0
   -0.1974   -1.1410   -1.8896 H   0  0  0  0  0  0  0  0  0  0  0  0
   -0.1225    2.4069   -1.7872 H   0  0  0  0  0  0  0  0  0  0  0  0
    0.1616    4.1184   -1.5010 H   0  0  0  0  0  0  0  0  0  0  0  0
    0.2440    3.0004   -0.1433 H   0  0  0  0  0  0  0  0  0  0  0  0
   -1.5432    5.2898   -1.2825 H   0  0  0  0  0  0  0  0  0  0  0  0
   -2.7276    3.9463    2.0024 H   0  0  0  0  0  0  0  0  0  0  0  0
   -5.9401    1.3597    1.1621 H   0  0  0  0  0  0  0  0  0  0  0  0
   -2.8373    6.7509   -2.0487 H   0  0  0  0  0  0  0  0  0  0  0  0
   -4.4747    6.2388   -2.4121 H   0  0  0  0  0  0  0  0  0  0  0  0
   -4.0900    6.9738   -0.8360 H   0  0  0  0  0  0  0  0  0  0  0  0
   -6.4506    1.2356    3.5044 H   0  0  0  0  0  0  0  0  0  0  0  0
   -8.0778    5.8419   -1.5791 H   0  0  0  0  0  0  0  0  0  0  0  0
   -7.6568    7.2242   -0.5521 H   0  0  0  0  0  0  0  0  0  0  0  0
   -8.2161    5.7125    0.1922 H   0  0  0  0  0  0  0  0  0  0  0  0
   -5.0810    2.3616    5.1209 H   0  0  0  0  0  0  0  0  0  0  0  0
  1  2  1  0  0  0  0 
  1  3  2  0  0  0  0 
  1  4  1  0  0  0  0 
  2  5  1  0  0  0  0 
  6  4  1  0  0  0  0 
  4  7  2  0  0  0  0 
  5  8  1  0  0  0  0 
  6  9  1  0  0  0  0 
  6 10  1  0  0  0  0 
  7 11  1  0  0  0  0 
  7 12  1  0  0  0  0 
  9 13  1  0  0  0  0 
  9 14  2  0  0  0  0 
 10 15  2  0  0  0  0 
 10 16  1  0  0  0  0 
 12 14  1  0  0  0  0 
 13 17  1  0  0  0  0 
 13 18  2  0  0  0  0 
 14 19  1  0  0  0  0 
 15 20  1  0  0  0  0 
 16 21  2  0  0  0  0 
 17 22  1  0  0  0  0 
 20 23  1  0  0  0  0 
 20 24  2  0  0  0  0 
 21 24  1  0  0  0  0 
 23 25  1  0  0  0  0 
 23 26  2  0  0  0  0 
 27  5  1  0  0  0  0 
 28  5  1  0  0  0  0 
  6 29  1  0  0  0  0 
 30  8  1  0  0  0  0 
 31  8  1  0  0  0  0 
 32  8  1  0  0  0  0 
 33 11  1  0  0  0  0 
 34 11  1  0  0  0  0 
 35 11  1  0  0  0  0 
 36 12  1  0  0  0  0 
 37 15  1  0  0  0  0 
 38 16  1  0  0  0  0 
 39 19  1  0  0  0  0 
 40 19  1  0  0  0  0 
 41 19  1  0  0  0  0 
 42 21  1  0  0  0  0 
 43 22  1  0  0  0  0 
 44 22  1  0  0  0  0 
 45 22  1  0  0  0  0 
 46 24  1  0  0  0  0 
M  CHG  1  23   1
M  CHG  1  25  -1
M  END
> <cdk:Title>
(S)-nitrendipine

> <Conformer>
6

> <SuperDrugID>
SD000003

$$$$
(S)-nitrendipine
  CDK     0628171802

 46 47  0  0  0  0  0  0  0  0999 V2000
   -7.4205    3.8585    1.4968 C   0  0  0  0  0  0  0  0  0  0  0  0
   -8.2398    4.6628    2.2429 O   0  0  0  0  0  0  0  0  0  0  0  0
   -6.9723    4.3264    0.4213 O   0  0  0  0  0  0  0  0  0  0  0  0
   -7.0536    2.5564    1.9062 C   0  0  0  0  0  0  0  0  0  0  0  0
   -8.7238    5.9817    1.9527 C   0  0  1  0  0  0  0  0  0  0  0  0
   -5.8939    1.9025    1.2330 C   0  0  2  0  0  0  0  0  0  0  0  0
   -7.6796    1.8637    2.8957 C   0  0  0  0  0  0  0  0  0  0  0  0
   -9.6654    6.0202    0.7290 C   0  0  0  0  0  0  0  0  0  0  0  0
   -5.6708    0.4583    1.5116 C   0  0  0  0  0  0  0  0  0  0  0  0
   -4.6327    2.6652    1.5388 C   0  0  0  0  0  0  0  0  0  0  0  0
   -8.8016    2.3381    3.7035 C   0  0  0  0  0  0  0  0  0  0  0  0
   -7.2745    0.6227    3.1960 N   0  0  0  0  0  0  0  0  0  0  0  0
   -4.7436   -0.2518    0.7191 C   0  0  0  0  0  0  0  0  0  0  0  0
   -6.4016   -0.1170    2.5019 C   0  0  0  0  0  0  0  0  0  0  0  0
   -4.2377    2.9159    2.8771 C   0  0  0  0  0  0  0  0  0  0  0  0
   -3.8077    3.1538    0.4998 C   0  0  0  0  0  0  0  0  0  0  0  0
   -4.1198   -1.3860    1.1639 O   0  0  0  0  0  0  0  0  0  0  0  0
   -4.4452    0.1558   -0.4297 O   0  0  0  0  0  0  0  0  0  0  0  0
   -6.3576   -1.5286    2.8788 C   0  0  0  0  0  0  0  0  0  0  0  0
   -3.0715    3.6569    3.2020 C   0  0  0  0  0  0  0  0  0  0  0  0
   -2.6185    3.8406    0.7916 C   0  0  0  0  0  0  0  0  0  0  0  0
   -3.2306   -2.2443    0.4378 C   0  0  0  0  0  0  0  0  0  0  0  0
   -2.7456    3.9382    4.4784 N   0  0  0  0  0  0  0  0  0  0  0  0
   -2.2599    4.0952    2.1255 C   0  0  0  0  0  0  0  0  0  0  0  0
   -1.6971    4.5837    4.7949 O   0  0  0  0  0  0  0  0  0  0  0  0
   -3.4052    3.6215    5.3897 O   0  0  0  0  0  0  0  0  0  0  0  0
   -9.2768    6.3243    2.8299 H   0  0  0  0  0  0  0  0  0  0  0  0
   -7.8794    6.6561    1.8000 H   0  0  0  0  0  0  0  0  0  0  0  0
   -6.1221    1.9539    0.1615 H   0  0  0  0  0  0  0  0  0  0  0  0
  -10.0730    7.0253    0.6066 H   0  0  0  0  0  0  0  0  0  0  0  0
   -9.1275    5.7543   -0.1821 H   0  0  0  0  0  0  0  0  0  0  0  0
  -10.4890    5.3191    0.8732 H   0  0  0  0  0  0  0  0  0  0  0  0
   -9.6366    2.6214    3.0605 H   0  0  0  0  0  0  0  0  0  0  0  0
   -9.1764    1.5766    4.3933 H   0  0  0  0  0  0  0  0  0  0  0  0
   -8.4972    3.1952    4.3081 H   0  0  0  0  0  0  0  0  0  0  0  0
   -7.6745    0.2091    3.9764 H   0  0  0  0  0  0  0  0  0  0  0  0
   -4.8244    2.5577    3.6335 H   0  0  0  0  0  0  0  0  0  0  0  0
   -4.0595    3.0044   -0.4805 H   0  0  0  0  0  0  0  0  0  0  0  0
   -7.1328   -1.7954    3.6031 H   0  0  0  0  0  0  0  0  0  0  0  0
   -6.5132   -2.1594    1.9988 H   0  0  0  0  0  0  0  0  0  0  0  0
   -5.3926   -1.7654    3.3317 H   0  0  0  0  0  0  0  0  0  0  0  0
   -2.0123    4.1595    0.0305 H   0  0  0  0  0  0  0  0  0  0  0  0
   -3.7515   -2.6906   -0.4120 H   0  0  0  0  0  0  0  0  0  0  0  0
   -2.8944   -3.0448    1.0989 H   0  0  0  0  0  0  0  0  0  0  0  0
   -2.3598   -1.6896    0.0816 H   0  0  0  0  0  0  0  0  0  0  0  0
   -1.3916    4.6065    2.3001 H   0  0  0  0  0  0  0  0  0  0  0  0
  1  2  1  0  0  0  0 
  1  3  2  0  0  0  0 
  1  4  1  0  0  0  0 
  2  5  1  0  0  0  0 
  6  4  1  0  0  0  0 
  4  7  2  0  0  0  0 
  5  8  1  0  0  0  0 
  6  9  1  0  0  0  0 
  6 10  1  0  0  0  0 
  7 11  1  0  0  0  0 
  7 12  1  0  0  0  0 
  9 13  1  0  0  0  0 
  9 14  2  0  0  0  0 
 10 15  2  0  0  0  0 
 10 16  1  0  0  0  0 
 12 14  1  0  0  0  0 
 13 17  1  0  0  0  0 
 13 18  2  0  0  0  0 
 14 19  1  0  0  0  0 
 15 20  1  0  0  0  0 
 16 21  2  0  0  0  0 
 17 22  1  0  0  0  0 
 20 23  1  0  0  0  0 
 20 24  2  0  0  0  0 
 21 24  1  0  0  0  0 
 23 25  1  0  0  0  0 
 23 26  2  0  0  0  0 
 27  5  1  0  0  0  0 
 28  5  1  0  0  0  0 
  6 29  1  0  0  0  0 
 30  8  1  0  0  0  0 
 31  8  1  0  0  0  0 
 32  8  1  0  0  0  0 
 33 11  1  0  0  0  0 
 34 11  1  0  0  0  0 
 35 11  1  0  0  0  0 
 36 12  1  0  0  0  0 
 37 15  1  0  0  0  0 
 38 16  1  0  0  0  0 
 39 19  1  0  0  0  0 
 40 19  1  0  0  0  0 
 41 19  1  0  0  0  0 
 42 21  1  0  0  0  0 
 43 22  1  0  0  0  0 
 44 22  1  0  0  0  0 
 45 22  1  0  0  0  0 
 46 24  1  0  0  0  0 
M  CHG  1  23   1
M  CHG  1  25  -1
M  END
> <cdk:Title>
(S)-nitrendipine

> <Conformer>
7

> <SuperDrugID>
SD000003

$$$$
(S)-nitrendipine
  CDK     0628171802

 46 47  0  0  0  0  0  0  0  0999 V2000
   -7.4735    3.7582    1.7598 C   0  0  0  0  0  0  0  0  0  0  0  0
   -8.1815    4.4893    2.6789 O   0  0  0  0  0  0  0  0  0  0  0  0
   -7.1823    4.3167    0.6735 O   0  0  0  0  0  0  0  0  0  0  0  0
   -7.0481    2.4339    2.0076 C   0  0  0  0  0  0  0  0  0  0  0  0
   -8.6933    5.8306    2.5903 C   0  0  1  0  0  0  0  0  0  0  0  0
   -5.8966    1.8913    1.2287 C   0  0  2  0  0  0  0  0  0  0  0  0
   -7.6183    1.6211    2.9366 C   0  0  0  0  0  0  0  0  0  0  0  0
   -7.5815    6.8994    2.5282 C   0  0  0  0  0  0  0  0  0  0  0  0
   -5.6207    0.4312    1.3577 C   0  0  0  0  0  0  0  0  0  0  0  0
   -4.6505    2.6845    1.5386 C   0  0  0  0  0  0  0  0  0  0  0  0
   -8.7276    1.9725    3.8169 C   0  0  0  0  0  0  0  0  0  0  0  0
   -7.1675    0.3716    3.0983 N   0  0  0  0  0  0  0  0  0  0  0  0
   -4.7045   -0.1662    0.4685 C   0  0  0  0  0  0  0  0  0  0  0  0
   -6.2914   -0.2633    2.3146 C   0  0  0  0  0  0  0  0  0  0  0  0
   -4.2237    2.8934    2.8749 C   0  0  0  0  0  0  0  0  0  0  0  0
   -3.8784    3.2605    0.5025 C   0  0  0  0  0  0  0  0  0  0  0  0
   -4.0703   -1.3459    0.7459 O   0  0  0  0  0  0  0  0  0  0  0  0
   -4.4382    0.3833   -0.6285 O   0  0  0  0  0  0  0  0  0  0  0  0
   -6.1788   -1.6968    2.5842 C   0  0  0  0  0  0  0  0  0  0  0  0
   -3.0910    3.6865    3.2011 C   0  0  0  0  0  0  0  0  0  0  0  0
   -2.7260    4.0091    0.7908 C   0  0  0  0  0  0  0  0  0  0  0  0
   -3.1630   -2.0460   -0.1073 C   0  0  0  0  0  0  0  0  0  0  0  0
   -2.7477    3.9405    4.4792 N   0  0  0  0  0  0  0  0  0  0  0  0
   -2.3399    4.2212    2.1244 C   0  0  0  0  0  0  0  0  0  0  0  0
   -1.7008    4.5929    4.7936 O   0  0  0  0  0  0  0  0  0  0  0  0
   -3.3938    3.6030    5.3932 O   0  0  0  0  0  0  0  0  0  0  0  0
   -9.3506    5.9270    1.7217 H   0  0  0  0  0  0  0  0  0  0  0  0
   -9.2900    6.0108    3.4871 H   0  0  0  0  0  0  0  0  0  0  0  0
   -6.1817    2.0355    0.1801 H   0  0  0  0  0  0  0  0  0  0  0  0
   -8.0219    7.8977    2.5089 H   0  0  0  0  0  0  0  0  0  0  0  0
   -6.9314    6.8227    3.3998 H   0  0  0  0  0  0  0  0  0  0  0  0
   -6.9838    6.7765    1.6281 H   0  0  0  0  0  0  0  0  0  0  0  0
   -9.5899    2.2890    3.2283 H   0  0  0  0  0  0  0  0  0  0  0  0
   -9.0532    1.1356    4.4404 H   0  0  0  0  0  0  0  0  0  0  0  0
   -8.4245    2.7735    4.4900 H   0  0  0  0  0  0  0  0  0  0  0  0
   -7.5329   -0.1327    3.8428 H   0  0  0  0  0  0  0  0  0  0  0  0
   -4.7673    2.4708    3.6313 H   0  0  0  0  0  0  0  0  0  0  0  0
   -4.1446    3.1365   -0.4769 H   0  0  0  0  0  0  0  0  0  0  0  0
   -6.8801   -2.0387    3.3519 H   0  0  0  0  0  0  0  0  0  0  0  0
   -6.3917   -2.2723    1.6804 H   0  0  0  0  0  0  0  0  0  0  0  0
   -5.1757   -1.9333    2.9416 H   0  0  0  0  0  0  0  0  0  0  0  0
   -2.1685    4.4069    0.0305 H   0  0  0  0  0  0  0  0  0  0  0  0
   -3.6522   -2.2937   -1.0500 H   0  0  0  0  0  0  0  0  0  0  0  0
   -2.8548   -2.9669    0.3845 H   0  0  0  0  0  0  0  0  0  0  0  0
   -2.2835   -1.4332   -0.3045 H   0  0  0  0  0  0  0  0  0  0  0  0
   -1.5004    4.7787    2.3001 H   0  0  0  0  0  0  0  0  0  0  0  0
  1  2  1  0  0  0  0 
  1  3  2  0  0  0  0 
  1  4  1  0  0  0  0 
  2  5  1  0  0  0  0 
  6  4  1  0  0  0  0 
  4  7  2  0  0  0  0 
  5  8  1  0  0  0  0 
  6  9  1  0  0  0  0 
  6 10  1  0  0  0  0 
  7 11  1  0  0  0  0 
  7 12  1  0  0  0  0 
  9 13  1  0  0  0  0 
  9 14  2  0  0  0  0 
 10 15  2  0  0  0  0 
 10 16  1  0  0  0  0 
 12 14  1  0  0  0  0 
 13 17  1  0  0  0  0 
 13 18  2  0  0  0  0 
 14 19  1  0  0  0  0 
 15 20  1  0  0  0  0 
 16 21  2  0  0  0  0 
 17 22  1  0  0  0  0 
 20 23  1  0  0  0  0 
 20 24  2  0  0  0  0 
 21 24  1  0  0  0  0 
 23 25  1  0  0  0  0 
 23 26  2  0  0  0  0 
 27  5  1  0  0  0  0 
 28  5  1  0  0  0  0 
  6 29  1  0  0  0  0 
 30  8  1  0  0  0  0 
 31  8  1  0  0  0  0 
 32  8  1  0  0  0  0 
 33 11  1  0  0  0  0 
 34 11  1  0  0  0  0 
 35 11  1  0  0  0  0 
 36 12  1  0  0  0  0 
 37 15  1  0  0  0  0 
 38 16  1  0  0  0  0 
 39 19  1  0  0  0  0 
 40 19  1  0  0  0  0 
 41 19  1  0  0  0  0 
 42 21  1  0  0  0  0 
 43 22  1  0  0  0  0 
 44 22  1  0  0  0  0 
 45 22  1  0  0  0  0 
 46 24  1  0  0  0  0 
M  CHG  1  23   1
M  CHG  1  25  -1
M  END
> <cdk:Title>
(S)-nitrendipine

> <Conformer>
8

> <SuperDrugID>
SD000003

$$$$
(S)-nitrendipine
  CDK     0628171802

 46 47  0  0  0  0  0  0  0  0999 V2000
   -5.9200    4.4347   -0.6426 C   0  0  0  0  0  0  0  0  0  0  0  0
   -7.2409    4.6560   -0.9258 O   0  0  0  0  0  0  0  0  0  0  0  0
   -5.2707    5.3702   -0.1137 O   0  0  0  0  0  0  0  0  0  0  0  0
   -5.3005    3.1956   -0.9059 C   0  0  0  0  0  0  0  0  0  0  0  0
   -8.0299    5.8437   -0.7699 C   0  0  1  0  0  0  0  0  0  0  0  0
   -4.0538    2.8534   -0.1609 C   0  0  2  0  0  0  0  0  0  0  0  0
   -5.7884    2.2775   -1.7832 C   0  0  0  0  0  0  0  0  0  0  0  0
   -8.2363    6.2450    0.7046 C   0  0  0  0  0  0  0  0  0  0  0  0
   -3.3066    1.6485   -0.6237 C   0  0  0  0  0  0  0  0  0  0  0  0
   -4.3485    2.7190    1.3144 C   0  0  0  0  0  0  0  0  0  0  0  0
   -6.9990    2.4123   -2.5879 C   0  0  0  0  0  0  0  0  0  0  0  0
   -5.1322    1.1286   -1.9734 N   0  0  0  0  0  0  0  0  0  0  0  0
   -2.0080    1.4278   -0.1267 C   0  0  0  0  0  0  0  0  0  0  0  0
   -3.9128    0.8236   -1.5186 C   0  0  0  0  0  0  0  0  0  0  0  0
   -3.5935    3.4235    2.2870 C   0  0  0  0  0  0  0  0  0  0  0  0
   -5.3863    1.8712    1.7710 C   0  0  0  0  0  0  0  0  0  0  0  0
   -1.4465    0.1838   -0.0868 O   0  0  0  0  0  0  0  0  0  0  0  0
   -1.3281    2.3843    0.3178 O   0  0  0  0  0  0  0  0  0  0  0  0
   -3.3508   -0.4040   -2.0813 C   0  0  0  0  0  0  0  0  0  0  0  0
   -3.8195    3.2747    3.6821 C   0  0  0  0  0  0  0  0  0  0  0  0
   -5.6668    1.7437    3.1385 C   0  0  0  0  0  0  0  0  0  0  0  0
   -0.1485   -0.1538    0.4059 C   0  0  0  0  0  0  0  0  0  0  0  0
   -3.0403    3.8986    4.5895 N   0  0  0  0  0  0  0  0  0  0  0  0
   -4.8879    2.4316    4.0816 C   0  0  0  0  0  0  0  0  0  0  0  0
   -1.9929    4.5452    4.2682 O   0  0  0  0  0  0  0  0  0  0  0  0
   -3.2549    3.8800    5.7385 O   0  0  0  0  0  0  0  0  0  0  0  0
   -7.5760    6.6681   -1.3265 H   0  0  0  0  0  0  0  0  0  0  0  0
   -9.0078    5.6341   -1.2085 H   0  0  0  0  0  0  0  0  0  0  0  0
   -3.3789    3.6991   -0.3417 H   0  0  0  0  0  0  0  0  0  0  0  0
   -8.8830    7.1207    0.7601 H   0  0  0  0  0  0  0  0  0  0  0  0
   -8.7012    5.4252    1.2545 H   0  0  0  0  0  0  0  0  0  0  0  0
   -7.2873    6.4958    1.1776 H   0  0  0  0  0  0  0  0  0  0  0  0
   -6.9334    3.2968   -3.2264 H   0  0  0  0  0  0  0  0  0  0  0  0
   -7.1653    1.5526   -3.2421 H   0  0  0  0  0  0  0  0  0  0  0  0
   -7.8718    2.4887   -1.9389 H   0  0  0  0  0  0  0  0  0  0  0  0
   -5.5727    0.4620   -2.5226 H   0  0  0  0  0  0  0  0  0  0  0  0
   -2.8518    4.0514    1.9676 H   0  0  0  0  0  0  0  0  0  0  0  0
   -5.9529    1.3415    1.1055 H   0  0  0  0  0  0  0  0  0  0  0  0
   -3.9964   -0.8573   -2.8385 H   0  0  0  0  0  0  0  0  0  0  0  0
   -2.3920   -0.1988   -2.5612 H   0  0  0  0  0  0  0  0  0  0  0  0
   -3.2119   -1.1506   -1.2977 H   0  0  0  0  0  0  0  0  0  0  0  0
   -6.4345    1.1441    3.4468 H   0  0  0  0  0  0  0  0  0  0  0  0
    0.6202    0.3811   -0.1541 H   0  0  0  0  0  0  0  0  0  0  0  0
    0.0050   -1.2255    0.2855 H   0  0  0  0  0  0  0  0  0  0  0  0
   -0.0744    0.1025    1.4637 H   0  0  0  0  0  0  0  0  0  0  0  0
   -5.1075    2.3031    5.0721 H   0  0  0  0  0  0  0  0  0  0  0  0
  1  2  1  0  0  0  0 
  1  3  2  0  0  0  0 
  1  4  1  0  0  0  0 
  2  5  1  0  0  0  0 
  6  4  1  0  0  0  0 
  4  7  2  0  0  0  0 
  5  8  1  0  0  0  0 
  6  9  1  0  0  0  0 
  6 10  1  0  0  0  0 
  7 11  1  0  0  0  0 
  7 12  1  0  0  0  0 
  9 13  1  0  0  0  0 
  9 14  2  0  0  0  0 
 10 15  2  0  0  0  0 
 10 16  1  0  0  0  0 
 12 14  1  0  0  0  0 
 13 17  1  0  0  0  0 
 13 18  2  0  0  0  0 
 14 19  1  0  0  0  0 
 15 20  1  0  0  0  0 
 16 21  2  0  0  0  0 
 17 22  1  0  0  0  0 
 20 23  1  0  0  0  0 
 20 24  2  0  0  0  0 
 21 24  1  0  0  0  0 
 23 25  1  0  0  0  0 
 23 26  2  0  0  0  0 
 27  5  1  0  0  0  0 
 28  5  1  0  0  0  0 
  6 29  1  0  0  0  0 
 30  8  1  0  0  0  0 
 31  8  1  0  0  0  0 
 32  8  1  0  0  0  0 
 33 11  1  0  0  0  0 
 34 11  1  0  0  0  0 
 35 11  1  0  0  0  0 
 36 12  1  0  0  0  0 
 37 15  1  0  0  0  0 
 38 16  1  0  0  0  0 
 39 19  1  0  0  0  0 
 40 19  1  0  0  0  0 
 41 19  1  0  0  0  0 
 42 21  1  0  0  0  0 
 43 22  1  0  0  0  0 
 44 22  1  0  0  0  0 
 45 22  1  0  0  0  0 
 46 24  1  0  0  0  0 
M  CHG  1  23   1
M  CHG  1  25  -1
M  END
> <cdk:Title>
(S)-nitrendipine

> <Conformer>
9

> <SuperDrugID>
SD000003

$$$$
(S)-nitrendipine
  CDK     0628171802

 46 47  0  0  0  0  0  0  0  0999 V2000
   -1.9791    1.3611   -0.2290 C   0  0  0  0  0  0  0  0  0  0  0  0
   -0.6371    1.1648   -0.0384 O   0  0  0  0  0  0  0  0  0  0  0  0
   -2.7295    0.3561   -0.1782 O   0  0  0  0  0  0  0  0  0  0  0  0
   -2.5278    2.6373   -0.4655 C   0  0  0  0  0  0  0  0  0  0  0  0
    0.0837   -0.0595    0.1575 C   0  0  1  0  0  0  0  0  0  0  0  0
   -3.9718    2.8530   -0.1587 C   0  0  2  0  0  0  0  0  0  0  0  0
   -1.8110    3.6922   -0.9402 C   0  0  0  0  0  0  0  0  0  0  0  0
   -0.2455   -0.7423    1.5010 C   0  0  0  0  0  0  0  0  0  0  0  0
   -4.5694    4.1356   -0.6264 C   0  0  0  0  0  0  0  0  0  0  0  0
   -4.2257    2.6594    1.3174 C   0  0  0  0  0  0  0  0  0  0  0  0
   -0.3883    3.6857   -1.2687 C   0  0  0  0  0  0  0  0  0  0  0  0
   -2.4197    4.8631   -1.1599 N   0  0  0  0  0  0  0  0  0  0  0  0
   -5.9718    4.2815   -0.5804 C   0  0  0  0  0  0  0  0  0  0  0  0
   -3.7352    5.0925   -1.1117 C   0  0  0  0  0  0  0  0  0  0  0  0
   -3.4358    3.3187    2.2934 C   0  0  0  0  0  0  0  0  0  0  0  0
   -5.2494    1.7947    1.7751 C   0  0  0  0  0  0  0  0  0  0  0  0
   -6.5871    5.5016   -0.6013 O   0  0  0  0  0  0  0  0  0  0  0  0
   -6.7161    3.2735   -0.5210 O   0  0  0  0  0  0  0  0  0  0  0  0
   -4.1341    6.3923   -1.6490 C   0  0  0  0  0  0  0  0  0  0  0  0
   -3.6111    3.1086    3.6861 C   0  0  0  0  0  0  0  0  0  0  0  0
   -5.4822    1.6080    3.1470 C   0  0  0  0  0  0  0  0  0  0  0  0
   -7.9949    5.7545   -0.5721 C   0  0  0  0  0  0  0  0  0  0  0  0
   -2.7940    3.6902    4.5842 N   0  0  0  0  0  0  0  0  0  0  0  0
   -4.6707    2.2570    4.0907 C   0  0  0  0  0  0  0  0  0  0  0  0
   -1.7622    4.3519    4.2448 O   0  0  0  0  0  0  0  0  0  0  0  0
   -2.9636    3.6214    5.7382 O   0  0  0  0  0  0  0  0  0  0  0  0
   -0.1199   -0.7362   -0.6757 H   0  0  0  0  0  0  0  0  0  0  0  0
    1.1487    0.1869    0.1484 H   0  0  0  0  0  0  0  0  0  0  0  0
   -4.5000    2.0786   -0.7269 H   0  0  0  0  0  0  0  0  0  0  0  0
    0.3564   -1.6461    1.6187 H   0  0  0  0  0  0  0  0  0  0  0  0
   -0.0200   -0.0599    2.3215 H   0  0  0  0  0  0  0  0  0  0  0  0
   -1.3000   -1.0151    1.5530 H   0  0  0  0  0  0  0  0  0  0  0  0
   -0.1748    2.9103   -2.0084 H   0  0  0  0  0  0  0  0  0  0  0  0
   -0.0431    4.6379   -1.6844 H   0  0  0  0  0  0  0  0  0  0  0  0
    0.1969    3.5050   -0.3668 H   0  0  0  0  0  0  0  0  0  0  0  0
   -1.8578    5.6138   -1.4108 H   0  0  0  0  0  0  0  0  0  0  0  0
   -2.7042    3.9574    1.9737 H   0  0  0  0  0  0  0  0  0  0  0  0
   -5.8433    1.2925    1.1100 H   0  0  0  0  0  0  0  0  0  0  0  0
   -3.2924    6.9597   -2.0546 H   0  0  0  0  0  0  0  0  0  0  0  0
   -4.8492    6.2599   -2.4628 H   0  0  0  0  0  0  0  0  0  0  0  0
   -4.5801    7.0006   -0.8632 H   0  0  0  0  0  0  0  0  0  0  0  0
   -6.2379    0.9924    3.4582 H   0  0  0  0  0  0  0  0  0  0  0  0
   -8.4794    5.2629   -1.4183 H   0  0  0  0  0  0  0  0  0  0  0  0
   -8.1695    6.8291   -0.6397 H   0  0  0  0  0  0  0  0  0  0  0  0
   -8.4199    5.3830    0.3622 H   0  0  0  0  0  0  0  0  0  0  0  0
   -4.8597    2.0933    5.0822 H   0  0  0  0  0  0  0  0  0  0  0  0
  1  2  1  0  0  0  0 
  1  3  2  0  0  0  0 
  1  4  1  0  0  0  0 
  2  5  1  0  0  0  0 
  6  4  1  0  0  0  0 
  4  7  2  0  0  0  0 
  5  8  1  0  0  0  0 
  6  9  1  0  0  0  0 
  6 10  1  0  0  0  0 
  7 11  1  0  0  0  0 
  7 12  1  0  0  0  0 
  9 13  1  0  0  0  0 
  9 14  2  0  0  0  0 
 10 15  2  0  0  0  0 
 10 16  1  0  0  0  0 
 12 14  1  0  0  0  0 
 13 17  1  0  0  0  0 
 13 18  2  0  0  0  0 
 14 19  1  0  0  0  0 
 15 20  1  0  0  0  0 
 16 21  2  0  0  0  0 
 17 22  1  0  0  0  0 
 20 23  1  0  0  0  0 
 20 24  2  0  0  0  0 
 21 24  1  0  0  0  0 
 23 25  1  0  0  0  0 
 23 26  2  0  0  0  0 
 27  5  1  0  0  0  0 
 28  5  1  0  0  0  0 
  6 29  1  0  0  0  0 
 30  8  1  0  0  0  0 
 31  8  1  0  0  0  0 
 32  8  1  0  0  0  0 
 33 11  1  0  0  0  0 
 34 11  1  0  0  0  0 
 35 11  1  0  0  0  0 
 36 12  1  0  0  0  0 
 37 15  1  0  0  0  0 
 38 16  1  0  0  0  0 
 39 19  1  0  0  0  0 
 40 19  1  0  0  0  0 
 41 19  1  0  0  0  0 
 42 21  1  0  0  0  0 
 43 22  1  0  0  0  0 
 44 22  1  0  0  0  0 
 45 22  1  0  0  0  0 
 46 24  1  0  0  0  0 
M  CHG  1  23   1
M  CHG  1  25  -1
M  END
> <cdk:Title>
(S)-nitrendipine

> <Conformer>
10

> <SuperDrugID>
SD000003

$$$$
