acediasulfone
  CDK     0628171801

 35 36  0  0  0  0  0  0  0  0999 V2000
   -2.8128    1.7699   -5.2883 S   0  0  1  0  0  0  0  0  0  0  0  0
   -2.3613    2.3259   -6.7258 O   0  0  0  0  0  0  0  0  0  0  0  0
   -3.0971    0.1948   -5.4209 O   0  0  0  0  0  0  0  0  0  0  0  0
   -1.5216    2.0818   -4.1090 C   0  0  0  0  0  0  0  0  0  0  0  0
   -4.2709    2.6192   -4.7330 C   0  0  0  0  0  0  0  0  0  0  0  0
   -0.9986    3.3850   -3.9964 C   0  0  0  0  0  0  0  0  0  0  0  0
   -1.0553    1.0676   -3.2496 C   0  0  0  0  0  0  0  0  0  0  0  0
   -4.4885    3.9656   -5.0916 C   0  0  0  0  0  0  0  0  0  0  0  0
   -5.1819    1.9742   -3.8693 C   0  0  0  0  0  0  0  0  0  0  0  0
   -0.0319    3.6791   -3.0194 C   0  0  0  0  0  0  0  0  0  0  0  0
   -0.0891    1.3636   -2.2706 C   0  0  0  0  0  0  0  0  0  0  0  0
   -5.5914    4.6687   -4.5717 C   0  0  0  0  0  0  0  0  0  0  0  0
   -6.2864    2.6768   -3.3528 C   0  0  0  0  0  0  0  0  0  0  0  0
    0.4315    2.6703   -2.1412 C   0  0  0  0  0  0  0  0  0  0  0  0
   -6.4879    4.0295   -3.6927 C   0  0  0  0  0  0  0  0  0  0  0  0
    1.3620    2.8727   -1.1647 N   0  0  0  0  0  0  0  0  0  0  0  0
   -7.5273    4.7143   -3.1750 N   0  0  0  0  0  0  0  0  0  0  0  0
    2.0774    4.0795   -0.9068 C   0  0  2  0  0  0  0  0  0  0  0  0
    3.0828    3.8523    0.1407 C   0  0  0  0  0  0  0  0  0  0  0  0
    4.3987    4.0071   -0.1317 O   0  0  0  0  0  0  0  0  0  0  0  0
    2.7381    3.5066    1.2927 O   0  0  0  0  0  0  0  0  0  0  0  0
   -1.3261    4.1300   -4.6170 H   0  0  0  0  0  0  0  0  0  0  0  0
   -1.4171    0.1144   -3.3189 H   0  0  0  0  0  0  0  0  0  0  0  0
   -3.8399    4.4471   -5.7181 H   0  0  0  0  0  0  0  0  0  0  0  0
   -5.0383    0.9985   -3.6007 H   0  0  0  0  0  0  0  0  0  0  0  0
    0.3222    4.6354   -2.9553 H   0  0  0  0  0  0  0  0  0  0  0  0
    0.2348    0.6182   -1.6481 H   0  0  0  0  0  0  0  0  0  0  0  0
   -5.7299    5.6481   -4.8311 H   0  0  0  0  0  0  0  0  0  0  0  0
   -6.9354    2.1994   -2.7222 H   0  0  0  0  0  0  0  0  0  0  0  0
    1.5565    2.1158   -0.5906 H   0  0  0  0  0  0  0  0  0  0  0  0
   -8.1437    4.2781   -2.5650 H   0  0  0  0  0  0  0  0  0  0  0  0
   -7.6568    5.6483   -3.4057 H   0  0  0  0  0  0  0  0  0  0  0  0
    1.3875    4.8629   -0.5850 H   0  0  0  0  0  0  0  0  0  0  0  0
    2.5769    4.4081   -1.8205 H   0  0  0  0  0  0  0  0  0  0  0  0
    5.0722    3.8396    0.5577 H   0  0  0  0  0  0  0  0  0  0  0  0
  1  2  2  0  0  0  0 
  1  3  2  0  0  0  0 
  1  4  1  0  0  0  0 
  1  5  1  0  0  0  0 
  4  6  2  0  0  0  0 
  4  7  1  0  0  0  0 
  5  8  2  0  0  0  0 
  5  9  1  0  0  0  0 
  6 10  1  0  0  0  0 
  7 11  2  0  0  0  0 
  8 12  1  0  0  0  0 
  9 13  2  0  0  0  0 
 10 14  2  0  0  0  0 
 11 14  1  0  0  0  0 
 12 15  2  0  0  0  0 
 13 15  1  0  0  0  0 
 14 16  1  0  0  0  0 
 15 17  1  0  0  0  0 
 16 18  1  0  0  0  0 
 18 19  1  0  0  0  0 
 19 20  1  0  0  0  0 
 19 21  2  0  0  0  0 
  6 22  1  0  0  0  0 
  7 23  1  0  0  0  0 
  8 24  1  0  0  0  0 
  9 25  1  0  0  0  0 
 10 26  1  0  0  0  0 
 11 27  1  0  0  0  0 
 12 28  1  0  0  0  0 
 13 29  1  0  0  0  0 
 16 30  1  0  0  0  0 
 17 31  1  0  0  0  0 
 17 32  1  0  0  0  0 
 18 33  1  0  0  0  0 
 18 34  1  0  0  0  0 
 20 35  1  0  0  0  0 
M  END
> <cdk:Title>
acediasulfone

> <Conformer>
1

> <SuperDrugID>
SD000021

$$$$
acediasulfone
  CDK     0628171801

 35 36  0  0  0  0  0  0  0  0999 V2000
   -3.4174    1.8966   -6.0700 S   0  0  1  0  0  0  0  0  0  0  0  0
   -3.4079    0.2938   -6.1701 O   0  0  0  0  0  0  0  0  0  0  0  0
   -1.8999    2.3991   -5.9124 O   0  0  0  0  0  0  0  0  0  0  0  0
   -4.1512    2.5780   -7.5372 C   0  0  0  0  0  0  0  0  0  0  0  0
   -4.3921    2.4170   -4.6810 C   0  0  0  0  0  0  0  0  0  0  0  0
   -5.3840    2.0735   -7.9946 C   0  0  0  0  0  0  0  0  0  0  0  0
   -3.5504    3.6538   -8.2208 C   0  0  0  0  0  0  0  0  0  0  0  0
   -5.5113    1.6604   -4.2774 C   0  0  0  0  0  0  0  0  0  0  0  0
   -4.0924    3.6224   -4.0137 C   0  0  0  0  0  0  0  0  0  0  0  0
   -6.0213    2.6513   -9.1066 C   0  0  0  0  0  0  0  0  0  0  0  0
   -4.1862    4.2257   -9.3389 C   0  0  0  0  0  0  0  0  0  0  0  0
   -6.3411    2.1204   -3.2391 C   0  0  0  0  0  0  0  0  0  0  0  0
   -4.9212    4.0815   -2.9738 C   0  0  0  0  0  0  0  0  0  0  0  0
   -5.4306    3.7387   -9.7935 C   0  0  0  0  0  0  0  0  0  0  0  0
   -6.0545    3.3373   -2.5897 C   0  0  0  0  0  0  0  0  0  0  0  0
   -5.9898    4.3590  -10.8746 N   0  0  0  0  0  0  0  0  0  0  0  0
   -6.8648    3.7892   -1.6136 N   0  0  0  0  0  0  0  0  0  0  0  0
   -7.2468    4.0478  -11.4749 C   0  0  2  0  0  0  0  0  0  0  0  0
   -7.3692    4.7909  -12.7357 C   0  0  0  0  0  0  0  0  0  0  0  0
   -6.5406    4.4970  -13.7653 O   0  0  0  0  0  0  0  0  0  0  0  0
   -8.2217    5.6968  -12.8773 O   0  0  0  0  0  0  0  0  0  0  0  0
   -5.8341    1.2912   -7.5145 H   0  0  0  0  0  0  0  0  0  0  0  0
   -2.6567    4.0367   -7.9059 H   0  0  0  0  0  0  0  0  0  0  0  0
   -5.7394    0.7804   -4.7447 H   0  0  0  0  0  0  0  0  0  0  0  0
   -3.2810    4.1797   -4.2891 H   0  0  0  0  0  0  0  0  0  0  0  0
   -6.9217    2.2702   -9.4025 H   0  0  0  0  0  0  0  0  0  0  0  0
   -3.7324    5.0080   -9.8166 H   0  0  0  0  0  0  0  0  0  0  0  0
   -7.1584    1.5679   -2.9687 H   0  0  0  0  0  0  0  0  0  0  0  0
   -4.6986    4.9645   -2.5081 H   0  0  0  0  0  0  0  0  0  0  0  0
   -5.4988    5.1075  -11.2544 H   0  0  0  0  0  0  0  0  0  0  0  0
   -6.6706    4.6303   -1.1704 H   0  0  0  0  0  0  0  0  0  0  0  0
   -7.6491    3.2777   -1.3578 H   0  0  0  0  0  0  0  0  0  0  0  0
   -8.0524    4.3168  -10.7861 H   0  0  0  0  0  0  0  0  0  0  0  0
   -7.3220    2.9830  -11.7086 H   0  0  0  0  0  0  0  0  0  0  0  0
   -6.6064    4.9855  -14.6116 H   0  0  0  0  0  0  0  0  0  0  0  0
  1  2  2  0  0  0  0 
  1  3  2  0  0  0  0 
  1  4  1  0  0  0  0 
  1  5  1  0  0  0  0 
  4  6  2  0  0  0  0 
  4  7  1  0  0  0  0 
  5  8  2  0  0  0  0 
  5  9  1  0  0  0  0 
  6 10  1  0  0  0  0 
  7 11  2  0  0  0  0 
  8 12  1  0  0  0  0 
  9 13  2  0  0  0  0 
 10 14  2  0  0  0  0 
 11 14  1  0  0  0  0 
 12 15  2  0  0  0  0 
 13 15  1  0  0  0  0 
 14 16  1  0  0  0  0 
 15 17  1  0  0  0  0 
 16 18  1  0  0  0  0 
 18 19  1  0  0  0  0 
 19 20  1  0  0  0  0 
 19 21  2  0  0  0  0 
  6 22  1  0  0  0  0 
  7 23  1  0  0  0  0 
  8 24  1  0  0  0  0 
  9 25  1  0  0  0  0 
 10 26  1  0  0  0  0 
 11 27  1  0  0  0  0 
 12 28  1  0  0  0  0 
 13 29  1  0  0  0  0 
 16 30  1  0  0  0  0 
 17 31  1  0  0  0  0 
 17 32  1  0  0  0  0 
 18 33  1  0  0  0  0 
 18 34  1  0  0  0  0 
 20 35  1  0  0  0  0 
M  END
> <cdk:Title>
acediasulfone

> <Conformer>
2

> <SuperDrugID>
SD000021

$$$$
acediasulfone
  CDK     0628171801

 35 36  0  0  0  0  0  0  0  0999 V2000
   -2.8585    1.5619   -5.2515 S   0  0  1  0  0  0  0  0  0  0  0  0
   -2.0529    2.3047   -6.4268 O   0  0  0  0  0  0  0  0  0  0  0  0
   -3.5115    0.2227   -5.8503 O   0  0  0  0  0  0  0  0  0  0  0  0
   -1.7592    1.1869   -3.9083 C   0  0  0  0  0  0  0  0  0  0  0  0
   -4.1150    2.6300   -4.5979 C   0  0  0  0  0  0  0  0  0  0  0  0
   -0.8221    2.1528   -3.4917 C   0  0  0  0  0  0  0  0  0  0  0  0
   -1.8489   -0.0374   -3.2164 C   0  0  0  0  0  0  0  0  0  0  0  0
   -3.9102    4.0244   -4.5683 C   0  0  0  0  0  0  0  0  0  0  0  0
   -5.2799    2.0829   -4.0222 C   0  0  0  0  0  0  0  0  0  0  0  0
    0.0204    1.8992   -2.3944 C   0  0  0  0  0  0  0  0  0  0  0  0
   -0.9923   -0.2966   -2.1316 C   0  0  0  0  0  0  0  0  0  0  0  0
   -4.8548    4.8646   -3.9514 C   0  0  0  0  0  0  0  0  0  0  0  0
   -6.2246    2.9233   -3.4062 C   0  0  0  0  0  0  0  0  0  0  0  0
   -0.0515    0.6660   -1.7045 C   0  0  0  0  0  0  0  0  0  0  0  0
   -6.0120    4.3156   -3.3640 C   0  0  0  0  0  0  0  0  0  0  0  0
    0.7397    0.3271   -0.6472 N   0  0  0  0  0  0  0  0  0  0  0  0
   -6.9088    5.1153   -2.7599 N   0  0  0  0  0  0  0  0  0  0  0  0
    1.6417    1.1740    0.0617 C   0  0  2  0  0  0  0  0  0  0  0  0
    2.3442    0.3644    1.0686 C   0  0  0  0  0  0  0  0  0  0  0  0
    2.0656    0.4984    2.3872 O   0  0  0  0  0  0  0  0  0  0  0  0
    3.1975   -0.4783    0.7105 O   0  0  0  0  0  0  0  0  0  0  0  0
   -0.7519    3.0491   -3.9801 H   0  0  0  0  0  0  0  0  0  0  0  0
   -2.5385   -0.7413   -3.4915 H   0  0  0  0  0  0  0  0  0  0  0  0
   -3.0674    4.4343   -4.9810 H   0  0  0  0  0  0  0  0  0  0  0  0
   -5.4393    1.0716   -4.0353 H   0  0  0  0  0  0  0  0  0  0  0  0
    0.6866    2.6189   -2.1111 H   0  0  0  0  0  0  0  0  0  0  0  0
   -1.0639   -1.1974   -1.6508 H   0  0  0  0  0  0  0  0  0  0  0  0
   -4.6916    5.8749   -3.9332 H   0  0  0  0  0  0  0  0  0  0  0  0
   -7.0646    2.5138   -2.9887 H   0  0  0  0  0  0  0  0  0  0  0  0
    0.6648   -0.5887   -0.3348 H   0  0  0  0  0  0  0  0  0  0  0  0
   -7.7052    4.7338   -2.3567 H   0  0  0  0  0  0  0  0  0  0  0  0
   -6.7624    6.0744   -2.7291 H   0  0  0  0  0  0  0  0  0  0  0  0
    1.0763    1.9750    0.5464 H   0  0  0  0  0  0  0  0  0  0  0  0
    2.3777    1.6168   -0.6149 H   0  0  0  0  0  0  0  0  0  0  0  0
    2.5185   -0.0735    3.0434 H   0  0  0  0  0  0  0  0  0  0  0  0
  1  2  2  0  0  0  0 
  1  3  2  0  0  0  0 
  1  4  1  0  0  0  0 
  1  5  1  0  0  0  0 
  4  6  2  0  0  0  0 
  4  7  1  0  0  0  0 
  5  8  2  0  0  0  0 
  5  9  1  0  0  0  0 
  6 10  1  0  0  0  0 
  7 11  2  0  0  0  0 
  8 12  1  0  0  0  0 
  9 13  2  0  0  0  0 
 10 14  2  0  0  0  0 
 11 14  1  0  0  0  0 
 12 15  2  0  0  0  0 
 13 15  1  0  0  0  0 
 14 16  1  0  0  0  0 
 15 17  1  0  0  0  0 
 16 18  1  0  0  0  0 
 18 19  1  0  0  0  0 
 19 20  1  0  0  0  0 
 19 21  2  0  0  0  0 
  6 22  1  0  0  0  0 
  7 23  1  0  0  0  0 
  8 24  1  0  0  0  0 
  9 25  1  0  0  0  0 
 10 26  1  0  0  0  0 
 11 27  1  0  0  0  0 
 12 28  1  0  0  0  0 
 13 29  1  0  0  0  0 
 16 30  1  0  0  0  0 
 17 31  1  0  0  0  0 
 17 32  1  0  0  0  0 
 18 33  1  0  0  0  0 
 18 34  1  0  0  0  0 
 20 35  1  0  0  0  0 
M  END
> <cdk:Title>
acediasulfone

> <Conformer>
3

> <SuperDrugID>
SD000021

$$$$
acediasulfone
  CDK     0628171801

 35 36  0  0  0  0  0  0  0  0999 V2000
   -3.5498    1.7352   -6.0243 S   0  0  1  0  0  0  0  0  0  0  0  0
   -3.1422    0.1951   -5.8214 O   0  0  0  0  0  0  0  0  0  0  0  0
   -2.2251    2.5717   -6.3763 O   0  0  0  0  0  0  0  0  0  0  0  0
   -4.7516    1.8752   -7.3231 C   0  0  0  0  0  0  0  0  0  0  0  0
   -4.3082    2.3644   -4.5507 C   0  0  0  0  0  0  0  0  0  0  0  0
   -5.8357    0.9750   -7.3631 C   0  0  0  0  0  0  0  0  0  0  0  0
   -4.6755    2.9163   -8.2695 C   0  0  0  0  0  0  0  0  0  0  0  0
   -5.0750    1.5091   -3.7333 C   0  0  0  0  0  0  0  0  0  0  0  0
   -4.2189    3.7364   -4.2407 C   0  0  0  0  0  0  0  0  0  0  0  0
   -6.8213    1.0995   -8.3565 C   0  0  0  0  0  0  0  0  0  0  0  0
   -5.6520    3.0263   -9.2742 C   0  0  0  0  0  0  0  0  0  0  0  0
   -5.7559    2.0251   -2.6165 C   0  0  0  0  0  0  0  0  0  0  0  0
   -4.8994    4.2515   -3.1228 C   0  0  0  0  0  0  0  0  0  0  0  0
   -6.7351    2.1232   -9.3290 C   0  0  0  0  0  0  0  0  0  0  0  0
   -5.6682    3.3973   -2.3069 C   0  0  0  0  0  0  0  0  0  0  0  0
   -7.6402    2.3069  -10.3305 N   0  0  0  0  0  0  0  0  0  0  0  0
   -6.3233    3.8928   -1.2424 N   0  0  0  0  0  0  0  0  0  0  0  0
   -8.8807    1.6230  -10.5071 C   0  0  2  0  0  0  0  0  0  0  0  0
   -9.4463    2.0121  -11.8083 C   0  0  0  0  0  0  0  0  0  0  0  0
   -9.6055    3.3209  -12.1200 O   0  0  0  0  0  0  0  0  0  0  0  0
   -9.7722    1.1525  -12.6582 O   0  0  0  0  0  0  0  0  0  0  0  0
   -5.9224    0.2349   -6.6625 H   0  0  0  0  0  0  0  0  0  0  0  0
   -3.9211    3.6048   -8.2269 H   0  0  0  0  0  0  0  0  0  0  0  0
   -5.1569    0.5145   -3.9546 H   0  0  0  0  0  0  0  0  0  0  0  0
   -3.6756    4.3683   -4.8330 H   0  0  0  0  0  0  0  0  0  0  0  0
   -7.5987    0.4379   -8.3584 H   0  0  0  0  0  0  0  0  0  0  0  0
   -5.5717    3.7785   -9.9629 H   0  0  0  0  0  0  0  0  0  0  0  0
   -6.3239    1.3984   -2.0413 H   0  0  0  0  0  0  0  0  0  0  0  0
   -4.8415    5.2513   -2.9168 H   0  0  0  0  0  0  0  0  0  0  0  0
   -7.4297    2.9999  -10.9779 H   0  0  0  0  0  0  0  0  0  0  0  0
   -6.2665    4.8393   -1.0336 H   0  0  0  0  0  0  0  0  0  0  0  0
   -6.8596    3.3071   -0.6838 H   0  0  0  0  0  0  0  0  0  0  0  0
   -9.5766    1.9047   -9.7113 H   0  0  0  0  0  0  0  0  0  0  0  0
   -8.7265    0.5416  -10.4782 H   0  0  0  0  0  0  0  0  0  0  0  0
   -9.9576    3.5778  -12.9990 H   0  0  0  0  0  0  0  0  0  0  0  0
  1  2  2  0  0  0  0 
  1  3  2  0  0  0  0 
  1  4  1  0  0  0  0 
  1  5  1  0  0  0  0 
  4  6  2  0  0  0  0 
  4  7  1  0  0  0  0 
  5  8  2  0  0  0  0 
  5  9  1  0  0  0  0 
  6 10  1  0  0  0  0 
  7 11  2  0  0  0  0 
  8 12  1  0  0  0  0 
  9 13  2  0  0  0  0 
 10 14  2  0  0  0  0 
 11 14  1  0  0  0  0 
 12 15  2  0  0  0  0 
 13 15  1  0  0  0  0 
 14 16  1  0  0  0  0 
 15 17  1  0  0  0  0 
 16 18  1  0  0  0  0 
 18 19  1  0  0  0  0 
 19 20  1  0  0  0  0 
 19 21  2  0  0  0  0 
  6 22  1  0  0  0  0 
  7 23  1  0  0  0  0 
  8 24  1  0  0  0  0 
  9 25  1  0  0  0  0 
 10 26  1  0  0  0  0 
 11 27  1  0  0  0  0 
 12 28  1  0  0  0  0 
 13 29  1  0  0  0  0 
 16 30  1  0  0  0  0 
 17 31  1  0  0  0  0 
 17 32  1  0  0  0  0 
 18 33  1  0  0  0  0 
 18 34  1  0  0  0  0 
 20 35  1  0  0  0  0 
M  END
> <cdk:Title>
acediasulfone

> <Conformer>
4

> <SuperDrugID>
SD000021

$$$$
acediasulfone
  CDK     0628171801

 35 36  0  0  0  0  0  0  0  0999 V2000
   -3.6282    1.5666   -5.9096 S   0  0  1  0  0  0  0  0  0  0  0  0
   -2.7944    0.2450   -5.5357 O   0  0  0  0  0  0  0  0  0  0  0  0
   -2.6748    2.5387   -6.7615 O   0  0  0  0  0  0  0  0  0  0  0  0
   -5.0717    1.1221   -6.8433 C   0  0  0  0  0  0  0  0  0  0  0  0
   -4.1771    2.3853   -4.4313 C   0  0  0  0  0  0  0  0  0  0  0  0
   -5.8774    0.0574   -6.3947 C   0  0  0  0  0  0  0  0  0  0  0  0
   -5.4664    1.8590   -7.9775 C   0  0  0  0  0  0  0  0  0  0  0  0
   -4.4661    1.6397   -3.2701 C   0  0  0  0  0  0  0  0  0  0  0  0
   -4.3843    3.7802   -4.4262 C   0  0  0  0  0  0  0  0  0  0  0  0
   -7.0760   -0.2557   -7.0595 C   0  0  0  0  0  0  0  0  0  0  0  0
   -6.6667    1.5433   -8.6415 C   0  0  0  0  0  0  0  0  0  0  0  0
   -4.9495    2.2818   -2.1147 C   0  0  0  0  0  0  0  0  0  0  0  0
   -4.8662    4.4238   -3.2706 C   0  0  0  0  0  0  0  0  0  0  0  0
   -7.4922    0.4909   -8.1870 C   0  0  0  0  0  0  0  0  0  0  0  0
   -5.1484    3.6771   -2.1089 C   0  0  0  0  0  0  0  0  0  0  0  0
   -8.6559    0.2668   -8.8661 N   0  0  0  0  0  0  0  0  0  0  0  0
   -5.6093    4.2908   -1.0006 N   0  0  0  0  0  0  0  0  0  0  0  0
   -9.6476   -0.7196   -8.5625 C   0  0  2  0  0  0  0  0  0  0  0  0
  -10.7761   -0.7160   -9.5122 C   0  0  0  0  0  0  0  0  0  0  0  0
  -11.8512   -1.4964   -9.2575 O   0  0  0  0  0  0  0  0  0  0  0  0
  -10.7864   -0.0171  -10.5519 O   0  0  0  0  0  0  0  0  0  0  0  0
   -5.6059   -0.4866   -5.5721 H   0  0  0  0  0  0  0  0  0  0  0  0
   -4.8959    2.6366   -8.3180 H   0  0  0  0  0  0  0  0  0  0  0  0
   -4.3343    0.6250   -3.2588 H   0  0  0  0  0  0  0  0  0  0  0  0
   -4.1927    4.3356   -5.2641 H   0  0  0  0  0  0  0  0  0  0  0  0
   -7.6434   -1.0275   -6.7072 H   0  0  0  0  0  0  0  0  0  0  0  0
   -6.9399    2.0950   -9.4597 H   0  0  0  0  0  0  0  0  0  0  0  0
   -5.1588    1.7257   -1.2820 H   0  0  0  0  0  0  0  0  0  0  0  0
   -5.0137    5.4363   -3.2835 H   0  0  0  0  0  0  0  0  0  0  0  0
   -8.8365    0.8521   -9.6181 H   0  0  0  0  0  0  0  0  0  0  0  0
   -5.7464    5.2521   -0.9967 H   0  0  0  0  0  0  0  0  0  0  0  0
   -5.8038    3.7711   -0.2034 H   0  0  0  0  0  0  0  0  0  0  0  0
  -10.0445   -0.5238   -7.5637 H   0  0  0  0  0  0  0  0  0  0  0  0
   -9.2000   -1.7147   -8.5732 H   0  0  0  0  0  0  0  0  0  0  0  0
  -12.6203   -1.4965   -9.8647 H   0  0  0  0  0  0  0  0  0  0  0  0
  1  2  2  0  0  0  0 
  1  3  2  0  0  0  0 
  1  4  1  0  0  0  0 
  1  5  1  0  0  0  0 
  4  6  2  0  0  0  0 
  4  7  1  0  0  0  0 
  5  8  2  0  0  0  0 
  5  9  1  0  0  0  0 
  6 10  1  0  0  0  0 
  7 11  2  0  0  0  0 
  8 12  1  0  0  0  0 
  9 13  2  0  0  0  0 
 10 14  2  0  0  0  0 
 11 14  1  0  0  0  0 
 12 15  2  0  0  0  0 
 13 15  1  0  0  0  0 
 14 16  1  0  0  0  0 
 15 17  1  0  0  0  0 
 16 18  1  0  0  0  0 
 18 19  1  0  0  0  0 
 19 20  1  0  0  0  0 
 19 21  2  0  0  0  0 
  6 22  1  0  0  0  0 
  7 23  1  0  0  0  0 
  8 24  1  0  0  0  0 
  9 25  1  0  0  0  0 
 10 26  1  0  0  0  0 
 11 27  1  0  0  0  0 
 12 28  1  0  0  0  0 
 13 29  1  0  0  0  0 
 16 30  1  0  0  0  0 
 17 31  1  0  0  0  0 
 17 32  1  0  0  0  0 
 18 33  1  0  0  0  0 
 18 34  1  0  0  0  0 
 20 35  1  0  0  0  0 
M  END
> <cdk:Title>
acediasulfone

> <Conformer>
5

> <SuperDrugID>
SD000021

$$$$
acediasulfone
  CDK     0628171801

 35 36  0  0  0  0  0  0  0  0999 V2000
   -3.6289    1.4222   -5.7493 S   0  0  1  0  0  0  0  0  0  0  0  0
   -2.4215    0.4329   -5.3714 O   0  0  0  0  0  0  0  0  0  0  0  0
   -3.1752    2.3232   -6.9982 O   0  0  0  0  0  0  0  0  0  0  0  0
   -5.0775    0.4766   -6.1449 C   0  0  0  0  0  0  0  0  0  0  0  0
   -4.0343    2.4496   -4.3638 C   0  0  0  0  0  0  0  0  0  0  0  0
   -5.4512   -0.5925   -5.3069 C   0  0  0  0  0  0  0  0  0  0  0  0
   -5.8863    0.8106   -7.2485 C   0  0  0  0  0  0  0  0  0  0  0  0
   -3.8250    1.9826   -3.0507 C   0  0  0  0  0  0  0  0  0  0  0  0
   -4.6546    3.6969   -4.5753 C   0  0  0  0  0  0  0  0  0  0  0  0
   -6.6211   -1.3269   -5.5698 C   0  0  0  0  0  0  0  0  0  0  0  0
   -7.0461    0.0630   -7.5197 C   0  0  0  0  0  0  0  0  0  0  0  0
   -4.2759    2.7396   -1.9548 C   0  0  0  0  0  0  0  0  0  0  0  0
   -5.1048    4.4531   -3.4784 C   0  0  0  0  0  0  0  0  0  0  0  0
   -7.4328   -1.0061   -6.6830 C   0  0  0  0  0  0  0  0  0  0  0  0
   -4.9373    3.9673   -2.1654 C   0  0  0  0  0  0  0  0  0  0  0  0
   -8.5757   -1.6683   -7.0209 N   0  0  0  0  0  0  0  0  0  0  0  0
   -5.4058    4.6743   -1.1182 N   0  0  0  0  0  0  0  0  0  0  0  0
   -9.4072   -2.4543   -6.1681 C   0  0  1  0  0  0  0  0  0  0  0  0
  -10.1864   -1.6057   -5.2495 C   0  0  0  0  0  0  0  0  0  0  0  0
  -10.9510   -0.6072   -5.7480 O   0  0  0  0  0  0  0  0  0  0  0  0
  -10.1642   -1.7941   -4.0117 O   0  0  0  0  0  0  0  0  0  0  0  0
   -4.8806   -0.8363   -4.4936 H   0  0  0  0  0  0  0  0  0  0  0  0
   -5.6475    1.6009   -7.8527 H   0  0  0  0  0  0  0  0  0  0  0  0
   -3.3618    1.0854   -2.8842 H   0  0  0  0  0  0  0  0  0  0  0  0
   -4.7977    4.0531   -5.5240 H   0  0  0  0  0  0  0  0  0  0  0  0
   -6.8654   -2.0967   -4.9451 H   0  0  0  0  0  0  0  0  0  0  0  0
   -7.6163    0.3148   -8.3307 H   0  0  0  0  0  0  0  0  0  0  0  0
   -4.1312    2.3830   -1.0068 H   0  0  0  0  0  0  0  0  0  0  0  0
   -5.5664    5.3508   -3.6452 H   0  0  0  0  0  0  0  0  0  0  0  0
   -8.8916   -1.5443   -7.9294 H   0  0  0  0  0  0  0  0  0  0  0  0
   -5.8609    5.5190   -1.2661 H   0  0  0  0  0  0  0  0  0  0  0  0
   -5.2926    4.3397   -0.2141 H   0  0  0  0  0  0  0  0  0  0  0  0
  -10.1118   -2.9849   -6.8078 H   0  0  0  0  0  0  0  0  0  0  0  0
   -8.8328   -3.2080   -5.6237 H   0  0  0  0  0  0  0  0  0  0  0  0
  -11.4914   -0.0462   -5.1539 H   0  0  0  0  0  0  0  0  0  0  0  0
  1  2  2  0  0  0  0 
  1  3  2  0  0  0  0 
  1  4  1  0  0  0  0 
  1  5  1  0  0  0  0 
  4  6  2  0  0  0  0 
  4  7  1  0  0  0  0 
  5  8  2  0  0  0  0 
  5  9  1  0  0  0  0 
  6 10  1  0  0  0  0 
  7 11  2  0  0  0  0 
  8 12  1  0  0  0  0 
  9 13  2  0  0  0  0 
 10 14  2  0  0  0  0 
 11 14  1  0  0  0  0 
 12 15  2  0  0  0  0 
 13 15  1  0  0  0  0 
 14 16  1  0  0  0  0 
 15 17  1  0  0  0  0 
 16 18  1  0  0  0  0 
 18 19  1  0  0  0  0 
 19 20  1  0  0  0  0 
 19 21  2  0  0  0  0 
  6 22  1  0  0  0  0 
  7 23  1  0  0  0  0 
  8 24  1  0  0  0  0 
  9 25  1  0  0  0  0 
 10 26  1  0  0  0  0 
 11 27  1  0  0  0  0 
 12 28  1  0  0  0  0 
 13 29  1  0  0  0  0 
 16 30  1  0  0  0  0 
 17 31  1  0  0  0  0 
 17 32  1  0  0  0  0 
 18 33  1  0  0  0  0 
 18 34  1  0  0  0  0 
 20 35  1  0  0  0  0 
M  END
> <cdk:Title>
acediasulfone

> <Conformer>
6

> <SuperDrugID>
SD000021

$$$$
acediasulfone
  CDK     0628171801

 35 36  0  0  0  0  0  0  0  0999 V2000
   -2.9454    2.1223   -5.7678 S   0  0  1  0  0  0  0  0  0  0  0  0
   -3.3836    1.3459   -7.1031 O   0  0  0  0  0  0  0  0  0  0  0  0
   -1.9823    1.1649   -4.9104 O   0  0  0  0  0  0  0  0  0  0  0  0
   -2.0988    3.6207   -6.2010 C   0  0  0  0  0  0  0  0  0  0  0  0
   -4.3761    2.5799   -4.8160 C   0  0  0  0  0  0  0  0  0  0  0  0
   -2.5818    4.4134   -7.2604 C   0  0  0  0  0  0  0  0  0  0  0  0
   -0.9900    4.0644   -5.4547 C   0  0  0  0  0  0  0  0  0  0  0  0
   -5.6051    2.8414   -5.4568 C   0  0  0  0  0  0  0  0  0  0  0  0
   -4.2687    2.7610   -3.4217 C   0  0  0  0  0  0  0  0  0  0  0  0
   -1.9727    5.6443   -7.5617 C   0  0  0  0  0  0  0  0  0  0  0  0
   -0.3731    5.2911   -5.7644 C   0  0  0  0  0  0  0  0  0  0  0  0
   -6.7078    3.3057   -4.7155 C   0  0  0  0  0  0  0  0  0  0  0  0
   -5.3707    3.2242   -2.6786 C   0  0  0  0  0  0  0  0  0  0  0  0
   -0.8587    6.0982   -6.8177 C   0  0  0  0  0  0  0  0  0  0  0  0
   -6.5886    3.5143   -3.3265 C   0  0  0  0  0  0  0  0  0  0  0  0
   -0.2203    7.2823   -7.0590 N   0  0  0  0  0  0  0  0  0  0  0  0
   -7.6293    4.0053   -2.6253 N   0  0  0  0  0  0  0  0  0  0  0  0
   -0.7944    8.4774   -7.5952 C   0  0  1  0  0  0  0  0  0  0  0  0
   -1.6822    9.1134   -6.6062 C   0  0  0  0  0  0  0  0  0  0  0  0
   -1.2911   10.2322   -5.9501 O   0  0  0  0  0  0  0  0  0  0  0  0
   -2.8069    8.6273   -6.3486 O   0  0  0  0  0  0  0  0  0  0  0  0
   -3.3844    4.1032   -7.8148 H   0  0  0  0  0  0  0  0  0  0  0  0
   -0.6320    3.5053   -4.6765 H   0  0  0  0  0  0  0  0  0  0  0  0
   -5.6984    2.7180   -6.4672 H   0  0  0  0  0  0  0  0  0  0  0  0
   -3.3833    2.5789   -2.9441 H   0  0  0  0  0  0  0  0  0  0  0  0
   -2.3490    6.1962   -8.3331 H   0  0  0  0  0  0  0  0  0  0  0  0
    0.4264    5.5987   -5.2028 H   0  0  0  0  0  0  0  0  0  0  0  0
   -7.5891    3.5058   -5.1941 H   0  0  0  0  0  0  0  0  0  0  0  0
   -5.2750    3.3641   -1.6702 H   0  0  0  0  0  0  0  0  0  0  0  0
    0.7047    7.3418   -6.7740 H   0  0  0  0  0  0  0  0  0  0  0  0
   -7.5442    4.1627   -1.6719 H   0  0  0  0  0  0  0  0  0  0  0  0
   -8.4618    4.2190   -3.0749 H   0  0  0  0  0  0  0  0  0  0  0  0
    0.0212    9.1624   -7.8291 H   0  0  0  0  0  0  0  0  0  0  0  0
   -1.3338    8.2908   -8.5258 H   0  0  0  0  0  0  0  0  0  0  0  0
   -1.8761   10.6449   -5.2795 H   0  0  0  0  0  0  0  0  0  0  0  0
  1  2  2  0  0  0  0 
  1  3  2  0  0  0  0 
  1  4  1  0  0  0  0 
  1  5  1  0  0  0  0 
  4  6  2  0  0  0  0 
  4  7  1  0  0  0  0 
  5  8  2  0  0  0  0 
  5  9  1  0  0  0  0 
  6 10  1  0  0  0  0 
  7 11  2  0  0  0  0 
  8 12  1  0  0  0  0 
  9 13  2  0  0  0  0 
 10 14  2  0  0  0  0 
 11 14  1  0  0  0  0 
 12 15  2  0  0  0  0 
 13 15  1  0  0  0  0 
 14 16  1  0  0  0  0 
 15 17  1  0  0  0  0 
 16 18  1  0  0  0  0 
 18 19  1  0  0  0  0 
 19 20  1  0  0  0  0 
 19 21  2  0  0  0  0 
  6 22  1  0  0  0  0 
  7 23  1  0  0  0  0 
  8 24  1  0  0  0  0 
  9 25  1  0  0  0  0 
 10 26  1  0  0  0  0 
 11 27  1  0  0  0  0 
 12 28  1  0  0  0  0 
 13 29  1  0  0  0  0 
 16 30  1  0  0  0  0 
 17 31  1  0  0  0  0 
 17 32  1  0  0  0  0 
 18 33  1  0  0  0  0 
 18 34  1  0  0  0  0 
 20 35  1  0  0  0  0 
M  END
> <cdk:Title>
acediasulfone

> <Conformer>
7

> <SuperDrugID>
SD000021

$$$$
acediasulfone
  CDK     0628171801

 35 36  0  0  0  0  0  0  0  0999 V2000
   -3.5495    1.3233   -5.5752 S   0  0  1  0  0  0  0  0  0  0  0  0
   -2.0691    0.7366   -5.3670 O   0  0  0  0  0  0  0  0  0  0  0  0
   -3.6415    1.9606   -7.0460 O   0  0  0  0  0  0  0  0  0  0  0  0
   -4.7318    0.0127   -5.3950 C   0  0  0  0  0  0  0  0  0  0  0  0
   -3.9241    2.5382   -4.3334 C   0  0  0  0  0  0  0  0  0  0  0  0
   -4.5622   -0.9228   -4.3566 C   0  0  0  0  0  0  0  0  0  0  0  0
   -5.8727   -0.0593   -6.2177 C   0  0  0  0  0  0  0  0  0  0  0  0
   -3.3388    2.4526   -3.0527 C   0  0  0  0  0  0  0  0  0  0  0  0
   -4.8775    3.5437   -4.5963 C   0  0  0  0  0  0  0  0  0  0  0  0
   -5.5353   -1.9109   -4.1271 C   0  0  0  0  0  0  0  0  0  0  0  0
   -6.8375   -1.0589   -5.9968 C   0  0  0  0  0  0  0  0  0  0  0  0
   -3.7146    3.3547   -2.0393 C   0  0  0  0  0  0  0  0  0  0  0  0
   -5.2536    4.4468   -3.5841 C   0  0  0  0  0  0  0  0  0  0  0  0
   -6.6868   -1.9933   -4.9482 C   0  0  0  0  0  0  0  0  0  0  0  0
   -4.6781    4.3510   -2.3003 C   0  0  0  0  0  0  0  0  0  0  0  0
   -7.6809   -2.9180   -4.7925 N   0  0  0  0  0  0  0  0  0  0  0  0
   -5.0559    5.2000   -1.3229 N   0  0  0  0  0  0  0  0  0  0  0  0
   -8.1009   -3.5322   -3.5739 C   0  0  1  0  0  0  0  0  0  0  0  0
   -8.9136   -2.5857   -2.7902 C   0  0  0  0  0  0  0  0  0  0  0  0
   -8.3421   -1.4893   -2.2382 O   0  0  0  0  0  0  0  0  0  0  0  0
  -10.1399   -2.7733   -2.6218 O   0  0  0  0  0  0  0  0  0  0  0  0
   -3.7385   -0.8821   -3.7524 H   0  0  0  0  0  0  0  0  0  0  0  0
   -6.0149    0.6203   -6.9681 H   0  0  0  0  0  0  0  0  0  0  0  0
   -2.6533    1.7232   -2.8432 H   0  0  0  0  0  0  0  0  0  0  0  0
   -5.3180    3.6120   -5.5168 H   0  0  0  0  0  0  0  0  0  0  0  0
   -5.3882   -2.5627   -3.3554 H   0  0  0  0  0  0  0  0  0  0  0  0
   -7.6667   -1.0835   -6.5959 H   0  0  0  0  0  0  0  0  0  0  0  0
   -3.2902    3.2760   -1.1101 H   0  0  0  0  0  0  0  0  0  0  0  0
   -5.9543    5.1666   -3.7850 H   0  0  0  0  0  0  0  0  0  0  0  0
   -8.2126   -3.1221   -5.5790 H   0  0  0  0  0  0  0  0  0  0  0  0
   -5.7199    5.8836   -1.4995 H   0  0  0  0  0  0  0  0  0  0  0  0
   -4.6638    5.1328   -0.4389 H   0  0  0  0  0  0  0  0  0  0  0  0
   -8.7022   -4.4041   -3.8373 H   0  0  0  0  0  0  0  0  0  0  0  0
   -7.2624   -3.8932   -2.9745 H   0  0  0  0  0  0  0  0  0  0  0  0
   -8.8877   -0.8515   -1.7298 H   0  0  0  0  0  0  0  0  0  0  0  0
  1  2  2  0  0  0  0 
  1  3  2  0  0  0  0 
  1  4  1  0  0  0  0 
  1  5  1  0  0  0  0 
  4  6  2  0  0  0  0 
  4  7  1  0  0  0  0 
  5  8  2  0  0  0  0 
  5  9  1  0  0  0  0 
  6 10  1  0  0  0  0 
  7 11  2  0  0  0  0 
  8 12  1  0  0  0  0 
  9 13  2  0  0  0  0 
 10 14  2  0  0  0  0 
 11 14  1  0  0  0  0 
 12 15  2  0  0  0  0 
 13 15  1  0  0  0  0 
 14 16  1  0  0  0  0 
 15 17  1  0  0  0  0 
 16 18  1  0  0  0  0 
 18 19  1  0  0  0  0 
 19 20  1  0  0  0  0 
 19 21  2  0  0  0  0 
  6 22  1  0  0  0  0 
  7 23  1  0  0  0  0 
  8 24  1  0  0  0  0 
  9 25  1  0  0  0  0 
 10 26  1  0  0  0  0 
 11 27  1  0  0  0  0 
 12 28  1  0  0  0  0 
 13 29  1  0  0  0  0 
 16 30  1  0  0  0  0 
 17 31  1  0  0  0  0 
 17 32  1  0  0  0  0 
 18 33  1  0  0  0  0 
 18 34  1  0  0  0  0 
 20 35  1  0  0  0  0 
M  END
> <cdk:Title>
acediasulfone

> <Conformer>
8

> <SuperDrugID>
SD000021

$$$$
acediasulfone
  CDK     0628171801

 35 36  0  0  0  0  0  0  0  0999 V2000
   -3.4147    1.2856   -5.4180 S   0  0  1  0  0  0  0  0  0  0  0  0
   -1.8190    1.1152   -5.4816 O   0  0  0  0  0  0  0  0  0  0  0  0
   -3.9676    1.5076   -6.9085 O   0  0  0  0  0  0  0  0  0  0  0  0
   -4.1382   -0.1562   -4.6733 C   0  0  0  0  0  0  0  0  0  0  0  0
   -3.8481    2.6613   -4.3839 C   0  0  0  0  0  0  0  0  0  0  0  0
   -3.5895   -0.6471   -3.4720 C   0  0  0  0  0  0  0  0  0  0  0  0
   -5.2906   -0.7649   -5.2080 C   0  0  0  0  0  0  0  0  0  0  0  0
   -3.0102    3.0407   -3.3157 C   0  0  0  0  0  0  0  0  0  0  0  0
   -5.0866    3.3095   -4.5628 C   0  0  0  0  0  0  0  0  0  0  0  0
   -4.1928   -1.7253   -2.8017 C   0  0  0  0  0  0  0  0  0  0  0  0
   -5.8848   -1.8534   -4.5430 C   0  0  0  0  0  0  0  0  0  0  0  0
   -3.4315    4.0242   -2.4026 C   0  0  0  0  0  0  0  0  0  0  0  0
   -5.5066    4.2941   -3.6501 C   0  0  0  0  0  0  0  0  0  0  0  0
   -5.3478   -2.3467   -3.3335 C   0  0  0  0  0  0  0  0  0  0  0  0
   -4.6906    4.6401   -2.5540 C   0  0  0  0  0  0  0  0  0  0  0  0
   -5.9886   -3.4090   -2.7597 N   0  0  0  0  0  0  0  0  0  0  0  0
   -5.1181    5.5420   -1.6481 N   0  0  0  0  0  0  0  0  0  0  0  0
   -5.9180   -3.8391   -1.3965 C   0  0  1  0  0  0  0  0  0  0  0  0
   -6.7129   -3.0075   -0.4712 C   0  0  0  0  0  0  0  0  0  0  0  0
   -6.7770   -3.3397    0.8374 O   0  0  0  0  0  0  0  0  0  0  0  0
   -7.3520   -2.0019   -0.8558 O   0  0  0  0  0  0  0  0  0  0  0  0
   -2.7555   -0.2127   -3.0680 H   0  0  0  0  0  0  0  0  0  0  0  0
   -5.7124   -0.4124   -6.0705 H   0  0  0  0  0  0  0  0  0  0  0  0
   -2.1024    2.5890   -3.1819 H   0  0  0  0  0  0  0  0  0  0  0  0
   -5.6981    3.0538   -5.3418 H   0  0  0  0  0  0  0  0  0  0  0  0
   -3.7746   -2.0459   -1.9281 H   0  0  0  0  0  0  0  0  0  0  0  0
   -6.7277   -2.2743   -4.9433 H   0  0  0  0  0  0  0  0  0  0  0  0
   -2.8214    4.2768   -1.6217 H   0  0  0  0  0  0  0  0  0  0  0  0
   -6.4151    4.7445   -3.7831 H   0  0  0  0  0  0  0  0  0  0  0  0
   -6.6041   -3.9008   -3.3272 H   0  0  0  0  0  0  0  0  0  0  0  0
   -5.9896    5.9568   -1.7477 H   0  0  0  0  0  0  0  0  0  0  0  0
   -4.5612    5.7697   -0.8869 H   0  0  0  0  0  0  0  0  0  0  0  0
   -6.3231   -4.8514   -1.3596 H   0  0  0  0  0  0  0  0  0  0  0  0
   -4.8834   -3.8937   -1.0537 H   0  0  0  0  0  0  0  0  0  0  0  0
   -7.3077   -2.7992    1.4594 H   0  0  0  0  0  0  0  0  0  0  0  0
  1  2  2  0  0  0  0 
  1  3  2  0  0  0  0 
  1  4  1  0  0  0  0 
  1  5  1  0  0  0  0 
  4  6  2  0  0  0  0 
  4  7  1  0  0  0  0 
  5  8  2  0  0  0  0 
  5  9  1  0  0  0  0 
  6 10  1  0  0  0  0 
  7 11  2  0  0  0  0 
  8 12  1  0  0  0  0 
  9 13  2  0  0  0  0 
 10 14  2  0  0  0  0 
 11 14  1  0  0  0  0 
 12 15  2  0  0  0  0 
 13 15  1  0  0  0  0 
 14 16  1  0  0  0  0 
 15 17  1  0  0  0  0 
 16 18  1  0  0  0  0 
 18 19  1  0  0  0  0 
 19 20  1  0  0  0  0 
 19 21  2  0  0  0  0 
  6 22  1  0  0  0  0 
  7 23  1  0  0  0  0 
  8 24  1  0  0  0  0 
  9 25  1  0  0  0  0 
 10 26  1  0  0  0  0 
 11 27  1  0  0  0  0 
 12 28  1  0  0  0  0 
 13 29  1  0  0  0  0 
 16 30  1  0  0  0  0 
 17 31  1  0  0  0  0 
 17 32  1  0  0  0  0 
 18 33  1  0  0  0  0 
 18 34  1  0  0  0  0 
 20 35  1  0  0  0  0 
M  END
> <cdk:Title>
acediasulfone

> <Conformer>
9

> <SuperDrugID>
SD000021

$$$$
acediasulfone
  CDK     0628171801

 35 36  0  0  0  0  0  0  0  0999 V2000
   -3.1086    2.1240   -5.9112 S   0  0  1  0  0  0  0  0  0  0  0  0
   -3.5358    0.9347   -6.9026 O   0  0  0  0  0  0  0  0  0  0  0  0
   -1.7838    1.6698   -5.1257 O   0  0  0  0  0  0  0  0  0  0  0  0
   -2.7974    3.6023   -6.8454 C   0  0  0  0  0  0  0  0  0  0  0  0
   -4.4192    2.4652   -4.7616 C   0  0  0  0  0  0  0  0  0  0  0  0
   -3.6715    3.9687   -7.8886 C   0  0  0  0  0  0  0  0  0  0  0  0
   -1.7232    4.4511   -6.5120 C   0  0  0  0  0  0  0  0  0  0  0  0
   -5.7643    2.2654   -5.1350 C   0  0  0  0  0  0  0  0  0  0  0  0
   -4.1267    3.0049   -3.4918 C   0  0  0  0  0  0  0  0  0  0  0  0
   -3.4853    5.1820   -8.5768 C   0  0  0  0  0  0  0  0  0  0  0  0
   -1.5324    5.6575   -7.2104 C   0  0  0  0  0  0  0  0  0  0  0  0
   -6.8065    2.6286   -4.2613 C   0  0  0  0  0  0  0  0  0  0  0  0
   -5.1681    3.3679   -2.6165 C   0  0  0  0  0  0  0  0  0  0  0  0
   -2.4232    6.0493   -8.2310 C   0  0  0  0  0  0  0  0  0  0  0  0
   -6.5120    3.1961   -3.0051 C   0  0  0  0  0  0  0  0  0  0  0  0
   -2.2022    7.2617   -8.8157 N   0  0  0  0  0  0  0  0  0  0  0  0
   -7.5118    3.5839   -2.1874 N   0  0  0  0  0  0  0  0  0  0  0  0
   -3.1966    8.1591   -9.3131 C   0  0  1  0  0  0  0  0  0  0  0  0
   -3.9226    8.8781   -8.2465 C   0  0  0  0  0  0  0  0  0  0  0  0
   -3.7103    8.6424   -6.9281 O   0  0  0  0  0  0  0  0  0  0  0  0
   -4.7662    9.7473   -8.5609 O   0  0  0  0  0  0  0  0  0  0  0  0
   -4.4557    3.3627   -8.1462 H   0  0  0  0  0  0  0  0  0  0  0  0
   -1.0868    4.2067   -5.7490 H   0  0  0  0  0  0  0  0  0  0  0  0
   -5.9933    1.8746   -6.0513 H   0  0  0  0  0  0  0  0  0  0  0  0
   -3.1569    3.1553   -3.2062 H   0  0  0  0  0  0  0  0  0  0  0  0
   -4.1279    5.4221   -9.3325 H   0  0  0  0  0  0  0  0  0  0  0  0
   -0.7498    6.2635   -6.9502 H   0  0  0  0  0  0  0  0  0  0  0  0
   -7.7788    2.4905   -4.5480 H   0  0  0  0  0  0  0  0  0  0  0  0
   -4.9442    3.7690   -1.7022 H   0  0  0  0  0  0  0  0  0  0  0  0
   -1.2876    7.5850   -8.8169 H   0  0  0  0  0  0  0  0  0  0  0  0
   -7.3117    3.9833   -1.3257 H   0  0  0  0  0  0  0  0  0  0  0  0
   -8.4364    3.4740   -2.4615 H   0  0  0  0  0  0  0  0  0  0  0  0
   -2.6834    8.8972   -9.9321 H   0  0  0  0  0  0  0  0  0  0  0  0
   -3.9099    7.6369   -9.9517 H   0  0  0  0  0  0  0  0  0  0  0  0
   -4.2123    9.1489   -6.2551 H   0  0  0  0  0  0  0  0  0  0  0  0
  1  2  2  0  0  0  0 
  1  3  2  0  0  0  0 
  1  4  1  0  0  0  0 
  1  5  1  0  0  0  0 
  4  6  2  0  0  0  0 
  4  7  1  0  0  0  0 
  5  8  2  0  0  0  0 
  5  9  1  0  0  0  0 
  6 10  1  0  0  0  0 
  7 11  2  0  0  0  0 
  8 12  1  0  0  0  0 
  9 13  2  0  0  0  0 
 10 14  2  0  0  0  0 
 11 14  1  0  0  0  0 
 12 15  2  0  0  0  0 
 13 15  1  0  0  0  0 
 14 16  1  0  0  0  0 
 15 17  1  0  0  0  0 
 16 18  1  0  0  0  0 
 18 19  1  0  0  0  0 
 19 20  1  0  0  0  0 
 19 21  2  0  0  0  0 
  6 22  1  0  0  0  0 
  7 23  1  0  0  0  0 
  8 24  1  0  0  0  0 
  9 25  1  0  0  0  0 
 10 26  1  0  0  0  0 
 11 27  1  0  0  0  0 
 12 28  1  0  0  0  0 
 13 29  1  0  0  0  0 
 16 30  1  0  0  0  0 
 17 31  1  0  0  0  0 
 17 32  1  0  0  0  0 
 18 33  1  0  0  0  0 
 18 34  1  0  0  0  0 
 20 35  1  0  0  0  0 
M  END
> <cdk:Title>
acediasulfone

> <Conformer>
10

> <SuperDrugID>
SD000021

$$$$
