aminopterin
  CDK     0628171801

 52 54  0  0  0  0  0  0  0  0999 V2000
   -3.7852   -5.0157   -0.1160 N   0  0  0  0  0  0  0  0  0  0  0  0
   -2.5308   -5.5033   -0.1173 C   0  0  0  0  0  0  0  0  0  0  0  0
   -1.4106   -4.6541   -0.0397 C   0  0  0  0  0  0  0  0  0  0  0  0
   -2.3398   -6.8453   -0.2015 N   0  0  0  0  0  0  0  0  0  0  0  0
   -0.1247   -5.2443   -0.0202 C   0  0  0  0  0  0  0  0  0  0  0  0
   -1.5031   -3.3024   -0.0065 N   0  0  0  0  0  0  0  0  0  0  0  0
   -1.0966   -7.3932   -0.2040 C   0  0  0  0  0  0  0  0  0  0  0  0
    0.9622   -4.4353    0.0730 N   0  0  0  0  0  0  0  0  0  0  0  0
   -0.0021   -6.5930   -0.1041 N   0  0  0  0  0  0  0  0  0  0  0  0
   -0.4194   -2.4841    0.0492 C   0  0  0  0  0  0  0  0  0  0  0  0
   -0.9519   -8.7219   -0.3080 N   0  0  0  0  0  0  0  0  0  0  0  0
    0.8599   -3.0796    0.1153 C   0  0  0  0  0  0  0  0  0  0  0  0
   -0.6321   -1.0275   -0.0326 C   0  0  2  0  0  0  0  0  0  0  0  0
   -0.1715   -0.3086    1.1129 N   0  0  0  0  0  0  0  0  0  0  0  0
   -0.4130    1.0172    1.3609 C   0  0  0  0  0  0  0  0  0  0  0  0
   -1.1814    1.8441    0.5082 C   0  0  0  0  0  0  0  0  0  0  0  0
    0.1189    1.5877    2.5355 C   0  0  0  0  0  0  0  0  0  0  0  0
   -1.4272    3.1876    0.8344 C   0  0  0  0  0  0  0  0  0  0  0  0
   -0.1139    2.9411    2.8517 C   0  0  0  0  0  0  0  0  0  0  0  0
   -0.8895    3.7762    2.0058 C   0  0  0  0  0  0  0  0  0  0  0  0
   -1.1122    5.1541    2.3174 C   0  0  0  0  0  0  0  0  0  0  0  0
   -1.7104    5.9986    1.4212 N   0  0  0  0  0  0  0  0  0  0  0  0
   -0.7392    5.6161    3.4246 O   0  0  0  0  0  0  0  0  0  0  0  0
   -1.9345    7.4055    1.5731 C   0  0  1  0  0  0  0  0  0  0  0  0
   -2.3375    8.0375    0.2049 C   0  0  2  0  0  0  0  0  0  0  0  0
   -2.9731    7.6464    2.6019 C   0  0  0  0  0  0  0  0  0  0  0  0
   -1.2506    7.8749   -0.8988 C   0  0  1  0  0  0  0  0  0  0  0  0
   -4.2445    7.2121    2.4284 O   0  0  0  0  0  0  0  0  0  0  0  0
   -2.6951    8.2421    3.6678 O   0  0  0  0  0  0  0  0  0  0  0  0
   -1.6762    8.4041   -2.2107 C   0  0  0  0  0  0  0  0  0  0  0  0
   -1.8084    7.5702   -3.2710 O   0  0  0  0  0  0  0  0  0  0  0  0
   -1.9137    9.6230   -2.3732 O   0  0  0  0  0  0  0  0  0  0  0  0
   -4.5422   -5.6203   -0.1698 H   0  0  0  0  0  0  0  0  0  0  0  0
   -3.9366   -4.0584   -0.0579 H   0  0  0  0  0  0  0  0  0  0  0  0
   -1.7346   -9.2907   -0.3754 H   0  0  0  0  0  0  0  0  0  0  0  0
   -0.0663   -9.1161   -0.3202 H   0  0  0  0  0  0  0  0  0  0  0  0
    1.7050   -2.5101    0.1764 H   0  0  0  0  0  0  0  0  0  0  0  0
   -1.7036   -0.8478   -0.1547 H   0  0  0  0  0  0  0  0  0  0  0  0
   -0.1231   -0.6489   -0.9210 H   0  0  0  0  0  0  0  0  0  0  0  0
    0.3666   -0.7917    1.7593 H   0  0  0  0  0  0  0  0  0  0  0  0
   -1.5764    1.4822   -0.3605 H   0  0  0  0  0  0  0  0  0  0  0  0
    0.6822    1.0170    3.1710 H   0  0  0  0  0  0  0  0  0  0  0  0
   -2.0143    3.7221    0.1920 H   0  0  0  0  0  0  0  0  0  0  0  0
    0.2949    3.3112    3.7131 H   0  0  0  0  0  0  0  0  0  0  0  0
   -2.0000    5.6128    0.5821 H   0  0  0  0  0  0  0  0  0  0  0  0
   -0.9983    7.8721    1.8890 H   0  0  0  0  0  0  0  0  0  0  0  0
   -2.5270    9.1067    0.3488 H   0  0  0  0  0  0  0  0  0  0  0  0
   -3.2697    7.5793   -0.1435 H   0  0  0  0  0  0  0  0  0  0  0  0
   -0.3342    8.3865   -0.5938 H   0  0  0  0  0  0  0  0  0  0  0  0
   -1.0118    6.8148   -1.0155 H   0  0  0  0  0  0  0  0  0  0  0  0
   -4.9176    7.3622    3.1270 H   0  0  0  0  0  0  0  0  0  0  0  0
   -2.0864    7.9184   -4.1458 H   0  0  0  0  0  0  0  0  0  0  0  0
  1  2  1  0  0  0  0 
  2  3  2  0  0  0  0 
  2  4  1  0  0  0  0 
  3  5  1  0  0  0  0 
  3  6  1  0  0  0  0 
  4  7  2  0  0  0  0 
  5  8  1  0  0  0  0 
  5  9  2  0  0  0  0 
  6 10  2  0  0  0  0 
  7  9  1  0  0  0  0 
  7 11  1  0  0  0  0 
  8 12  2  0  0  0  0 
 10 12  1  0  0  0  0 
 10 13  1  0  0  0  0 
 13 14  1  0  0  0  0 
 14 15  1  0  0  0  0 
 15 16  2  0  0  0  0 
 15 17  1  0  0  0  0 
 16 18  1  0  0  0  0 
 17 19  2  0  0  0  0 
 18 20  2  0  0  0  0 
 19 20  1  0  0  0  0 
 20 21  1  0  0  0  0 
 21 22  1  0  0  0  0 
 21 23  2  0  0  0  0 
 24 22  1  0  0  0  0 
 24 25  1  0  0  0  0 
 24 26  1  0  0  0  0 
 25 27  1  0  0  0  0 
 26 28  1  0  0  0  0 
 26 29  2  0  0  0  0 
 27 30  1  0  0  0  0 
 30 31  1  0  0  0  0 
 30 32  2  0  0  0  0 
  1 33  1  0  0  0  0 
  1 34  1  0  0  0  0 
 11 35  1  0  0  0  0 
 11 36  1  0  0  0  0 
 12 37  1  0  0  0  0 
 13 38  1  0  0  0  0 
 13 39  1  0  0  0  0 
 14 40  1  0  0  0  0 
 16 41  1  0  0  0  0 
 17 42  1  0  0  0  0 
 18 43  1  0  0  0  0 
 19 44  1  0  0  0  0 
 22 45  1  0  0  0  0 
 24 46  1  0  0  0  0 
 25 47  1  0  0  0  0 
 25 48  1  0  0  0  0 
 27 49  1  0  0  0  0 
 27 50  1  0  0  0  0 
 28 51  1  0  0  0  0 
 31 52  1  0  0  0  0 
M  END
> <cdk:Title>
aminopterin

> <Conformer>
1

> <SuperDrugID>
SD000005

$$$$
aminopterin
  CDK     0628171801

 52 54  0  0  0  0  0  0  0  0999 V2000
   -3.6148   -5.2147    0.4573 N   0  0  0  0  0  0  0  0  0  0  0  0
   -2.3366   -5.6188    0.3447 C   0  0  0  0  0  0  0  0  0  0  0  0
   -1.2623   -4.7115    0.2571 C   0  0  0  0  0  0  0  0  0  0  0  0
   -2.0786   -6.9508    0.3090 N   0  0  0  0  0  0  0  0  0  0  0  0
    0.0521   -5.2364    0.1901 C   0  0  0  0  0  0  0  0  0  0  0  0
   -1.4193   -3.3664    0.2134 N   0  0  0  0  0  0  0  0  0  0  0  0
   -0.8142   -7.4351    0.2100 C   0  0  0  0  0  0  0  0  0  0  0  0
    1.1015   -4.3758    0.1333 N   0  0  0  0  0  0  0  0  0  0  0  0
    0.2406   -6.5801    0.1672 N   0  0  0  0  0  0  0  0  0  0  0  0
   -0.3768   -2.4984    0.1220 C   0  0  0  0  0  0  0  0  0  0  0  0
   -0.6197   -8.7581    0.1358 N   0  0  0  0  0  0  0  0  0  0  0  0
    0.9333   -3.0277    0.1033 C   0  0  0  0  0  0  0  0  0  0  0  0
   -0.6695   -1.0569    0.0072 C   0  0  2  0  0  0  0  0  0  0  0  0
   -0.2052   -0.3136    1.1351 N   0  0  0  0  0  0  0  0  0  0  0  0
   -0.4081    1.0236    1.3512 C   0  0  0  0  0  0  0  0  0  0  0  0
   -1.2641    1.8267    0.5634 C   0  0  0  0  0  0  0  0  0  0  0  0
    0.2680    1.6331    2.4280 C   0  0  0  0  0  0  0  0  0  0  0  0
   -1.4265    3.1950    0.8381 C   0  0  0  0  0  0  0  0  0  0  0  0
    0.1105    3.0070    2.6994 C   0  0  0  0  0  0  0  0  0  0  0  0
   -0.7353    3.8205    1.9051 C   0  0  0  0  0  0  0  0  0  0  0  0
   -0.8795    5.2222    2.1336 C   0  0  0  0  0  0  0  0  0  0  0  0
    0.0499    5.9373    2.8425 N   0  0  0  0  0  0  0  0  0  0  0  0
   -1.8624    5.8273    1.6384 O   0  0  0  0  0  0  0  0  0  0  0  0
    0.0722    7.3652    2.9974 C   0  0  1  0  0  0  0  0  0  0  0  0
    0.5929    7.7849    4.4038 C   0  0  2  0  0  0  0  0  0  0  0  0
    0.9074    7.9159    1.9027 C   0  0  0  0  0  0  0  0  0  0  0  0
   -0.3443    7.3289    5.5579 C   0  0  1  0  0  0  0  0  0  0  0  0
    2.2447    7.7093    1.8540 O   0  0  0  0  0  0  0  0  0  0  0  0
    0.3834    8.5618    0.9672 O   0  0  0  0  0  0  0  0  0  0  0  0
    0.1074    7.8046    6.8791 C   0  0  0  0  0  0  0  0  0  0  0  0
    0.4054    6.9265    7.8651 O   0  0  0  0  0  0  0  0  0  0  0  0
    0.1969    9.0296    7.1205 O   0  0  0  0  0  0  0  0  0  0  0  0
   -4.3246   -5.8738    0.5095 H   0  0  0  0  0  0  0  0  0  0  0  0
   -3.8324   -4.2698    0.4910 H   0  0  0  0  0  0  0  0  0  0  0  0
   -1.3793   -9.3617    0.1544 H   0  0  0  0  0  0  0  0  0  0  0  0
    0.2777   -9.1125    0.0466 H   0  0  0  0  0  0  0  0  0  0  0  0
    1.7530   -2.4175    0.0557 H   0  0  0  0  0  0  0  0  0  0  0  0
   -1.7490   -0.9233   -0.0843 H   0  0  0  0  0  0  0  0  0  0  0  0
   -0.2083   -0.6697   -0.9042 H   0  0  0  0  0  0  0  0  0  0  0  0
    0.3164   -0.7956    1.7965 H   0  0  0  0  0  0  0  0  0  0  0  0
   -1.7830    1.4300   -0.2208 H   0  0  0  0  0  0  0  0  0  0  0  0
    0.8869    1.0773    3.0230 H   0  0  0  0  0  0  0  0  0  0  0  0
   -2.0536    3.7326    0.2335 H   0  0  0  0  0  0  0  0  0  0  0  0
    0.6220    3.4029    3.4911 H   0  0  0  0  0  0  0  0  0  0  0  0
    0.7877    5.4496    3.2391 H   0  0  0  0  0  0  0  0  0  0  0  0
   -0.9394    7.7728    2.9012 H   0  0  0  0  0  0  0  0  0  0  0  0
    0.6825    8.8776    4.4306 H   0  0  0  0  0  0  0  0  0  0  0  0
    1.5897    7.3627    4.5657 H   0  0  0  0  0  0  0  0  0  0  0  0
   -1.3537    7.7093    5.3825 H   0  0  0  0  0  0  0  0  0  0  0  0
   -0.3944    6.2372    5.5708 H   0  0  0  0  0  0  0  0  0  0  0  0
    2.7725    8.0864    1.1180 H   0  0  0  0  0  0  0  0  0  0  0  0
    0.6914    7.2479    8.7495 H   0  0  0  0  0  0  0  0  0  0  0  0
  1  2  1  0  0  0  0 
  2  3  2  0  0  0  0 
  2  4  1  0  0  0  0 
  3  5  1  0  0  0  0 
  3  6  1  0  0  0  0 
  4  7  2  0  0  0  0 
  5  8  1  0  0  0  0 
  5  9  2  0  0  0  0 
  6 10  2  0  0  0  0 
  7  9  1  0  0  0  0 
  7 11  1  0  0  0  0 
  8 12  2  0  0  0  0 
 10 12  1  0  0  0  0 
 10 13  1  0  0  0  0 
 13 14  1  0  0  0  0 
 14 15  1  0  0  0  0 
 15 16  2  0  0  0  0 
 15 17  1  0  0  0  0 
 16 18  1  0  0  0  0 
 17 19  2  0  0  0  0 
 18 20  2  0  0  0  0 
 19 20  1  0  0  0  0 
 20 21  1  0  0  0  0 
 21 22  1  0  0  0  0 
 21 23  2  0  0  0  0 
 24 22  1  0  0  0  0 
 24 25  1  0  0  0  0 
 24 26  1  0  0  0  0 
 25 27  1  0  0  0  0 
 26 28  1  0  0  0  0 
 26 29  2  0  0  0  0 
 27 30  1  0  0  0  0 
 30 31  1  0  0  0  0 
 30 32  2  0  0  0  0 
  1 33  1  0  0  0  0 
  1 34  1  0  0  0  0 
 11 35  1  0  0  0  0 
 11 36  1  0  0  0  0 
 12 37  1  0  0  0  0 
 13 38  1  0  0  0  0 
 13 39  1  0  0  0  0 
 14 40  1  0  0  0  0 
 16 41  1  0  0  0  0 
 17 42  1  0  0  0  0 
 18 43  1  0  0  0  0 
 19 44  1  0  0  0  0 
 22 45  1  0  0  0  0 
 24 46  1  0  0  0  0 
 25 47  1  0  0  0  0 
 25 48  1  0  0  0  0 
 27 49  1  0  0  0  0 
 27 50  1  0  0  0  0 
 28 51  1  0  0  0  0 
 31 52  1  0  0  0  0 
M  END
> <cdk:Title>
aminopterin

> <Conformer>
2

> <SuperDrugID>
SD000005

$$$$
aminopterin
  CDK     0628171801

 52 54  0  0  0  0  0  0  0  0999 V2000
   -3.8895   -3.9635   -1.5728 N   0  0  0  0  0  0  0  0  0  0  0  0
   -2.7128   -4.3682   -2.0869 C   0  0  0  0  0  0  0  0  0  0  0  0
   -1.4882   -3.7917   -1.6902 C   0  0  0  0  0  0  0  0  0  0  0  0
   -2.7110   -5.3711   -3.0053 N   0  0  0  0  0  0  0  0  0  0  0  0
   -0.3066   -4.2855   -2.2970 C   0  0  0  0  0  0  0  0  0  0  0  0
   -1.3735   -2.8147   -0.7490 N   0  0  0  0  0  0  0  0  0  0  0  0
   -1.5598   -5.8356   -3.5594 C   0  0  0  0  0  0  0  0  0  0  0  0
    0.8881   -3.7552   -1.9431 N   0  0  0  0  0  0  0  0  0  0  0  0
   -0.3703   -5.2861   -3.2082 N   0  0  0  0  0  0  0  0  0  0  0  0
   -0.1716   -2.2989   -0.3653 C   0  0  0  0  0  0  0  0  0  0  0  0
   -1.5872   -6.8389   -4.4478 N   0  0  0  0  0  0  0  0  0  0  0  0
    0.9933   -2.7813   -1.0058 C   0  0  0  0  0  0  0  0  0  0  0  0
   -0.0995   -1.3231    0.7422 C   0  0  2  0  0  0  0  0  0  0  0  0
   -0.6385   -0.0432    0.4108 N   0  0  0  0  0  0  0  0  0  0  0  0
   -0.5414    1.0822    1.1880 C   0  0  0  0  0  0  0  0  0  0  0  0
    0.1688    1.1367    2.4105 C   0  0  0  0  0  0  0  0  0  0  0  0
   -1.1685    2.2602    0.7334 C   0  0  0  0  0  0  0  0  0  0  0  0
    0.2684    2.3332    3.1390 C   0  0  0  0  0  0  0  0  0  0  0  0
   -1.0828    3.4556    1.4737 C   0  0  0  0  0  0  0  0  0  0  0  0
   -0.3649    3.5207    2.6955 C   0  0  0  0  0  0  0  0  0  0  0  0
   -0.2970    4.7326    3.4502 C   0  0  0  0  0  0  0  0  0  0  0  0
    0.2367    4.7608    4.7108 N   0  0  0  0  0  0  0  0  0  0  0  0
   -0.7445    5.8000    2.9639 O   0  0  0  0  0  0  0  0  0  0  0  0
    0.3171    5.8950    5.5846 C   0  0  1  0  0  0  0  0  0  0  0  0
    0.7055    5.4388    7.0265 C   0  0  2  0  0  0  0  0  0  0  0  0
    1.2978    6.8704    5.0575 C   0  0  0  0  0  0  0  0  0  0  0  0
   -0.3278    4.4633    7.6620 C   0  0  1  0  0  0  0  0  0  0  0  0
    2.6025    6.5335    4.9400 O   0  0  0  0  0  0  0  0  0  0  0  0
    0.9421    8.0155    4.6961 O   0  0  0  0  0  0  0  0  0  0  0  0
    0.0862    3.9482    8.9811 C   0  0  0  0  0  0  0  0  0  0  0  0
    0.3070    2.6230    9.1492 O   0  0  0  0  0  0  0  0  0  0  0  0
    0.2136    4.7169    9.9617 O   0  0  0  0  0  0  0  0  0  0  0  0
   -4.7147   -4.3858   -1.8589 H   0  0  0  0  0  0  0  0  0  0  0  0
   -3.9174   -3.2510   -0.9148 H   0  0  0  0  0  0  0  0  0  0  0  0
   -2.4317   -7.2425   -4.7005 H   0  0  0  0  0  0  0  0  0  0  0  0
   -0.7605   -7.1643   -4.8377 H   0  0  0  0  0  0  0  0  0  0  0  0
    1.9186   -2.4227   -0.7662 H   0  0  0  0  0  0  0  0  0  0  0  0
    0.9429   -1.1956    1.0437 H   0  0  0  0  0  0  0  0  0  0  0  0
   -0.6489   -1.7300    1.5953 H   0  0  0  0  0  0  0  0  0  0  0  0
   -1.1242    0.0352   -0.4254 H   0  0  0  0  0  0  0  0  0  0  0  0
    0.6311    0.3091    2.7881 H   0  0  0  0  0  0  0  0  0  0  0  0
   -1.6932    2.2573   -0.1450 H   0  0  0  0  0  0  0  0  0  0  0  0
    0.8175    2.3126    4.0005 H   0  0  0  0  0  0  0  0  0  0  0  0
   -1.5591    4.2838    1.1077 H   0  0  0  0  0  0  0  0  0  0  0  0
    0.5936    3.9325    5.0622 H   0  0  0  0  0  0  0  0  0  0  0  0
   -0.6705    6.3667    5.6365 H   0  0  0  0  0  0  0  0  0  0  0  0
    0.7829    6.3248    7.6649 H   0  0  0  0  0  0  0  0  0  0  0  0
    1.6901    4.9580    7.0029 H   0  0  0  0  0  0  0  0  0  0  0  0
   -1.2879    4.9722    7.7763 H   0  0  0  0  0  0  0  0  0  0  0  0
   -0.4795    3.6134    6.9918 H   0  0  0  0  0  0  0  0  0  0  0  0
    3.2399    7.1848    4.5828 H   0  0  0  0  0  0  0  0  0  0  0  0
    0.5615    2.2697   10.0257 H   0  0  0  0  0  0  0  0  0  0  0  0
  1  2  1  0  0  0  0 
  2  3  2  0  0  0  0 
  2  4  1  0  0  0  0 
  3  5  1  0  0  0  0 
  3  6  1  0  0  0  0 
  4  7  2  0  0  0  0 
  5  8  1  0  0  0  0 
  5  9  2  0  0  0  0 
  6 10  2  0  0  0  0 
  7  9  1  0  0  0  0 
  7 11  1  0  0  0  0 
  8 12  2  0  0  0  0 
 10 12  1  0  0  0  0 
 10 13  1  0  0  0  0 
 13 14  1  0  0  0  0 
 14 15  1  0  0  0  0 
 15 16  2  0  0  0  0 
 15 17  1  0  0  0  0 
 16 18  1  0  0  0  0 
 17 19  2  0  0  0  0 
 18 20  2  0  0  0  0 
 19 20  1  0  0  0  0 
 20 21  1  0  0  0  0 
 21 22  1  0  0  0  0 
 21 23  2  0  0  0  0 
 24 22  1  0  0  0  0 
 24 25  1  0  0  0  0 
 24 26  1  0  0  0  0 
 25 27  1  0  0  0  0 
 26 28  1  0  0  0  0 
 26 29  2  0  0  0  0 
 27 30  1  0  0  0  0 
 30 31  1  0  0  0  0 
 30 32  2  0  0  0  0 
  1 33  1  0  0  0  0 
  1 34  1  0  0  0  0 
 11 35  1  0  0  0  0 
 11 36  1  0  0  0  0 
 12 37  1  0  0  0  0 
 13 38  1  0  0  0  0 
 13 39  1  0  0  0  0 
 14 40  1  0  0  0  0 
 16 41  1  0  0  0  0 
 17 42  1  0  0  0  0 
 18 43  1  0  0  0  0 
 19 44  1  0  0  0  0 
 22 45  1  0  0  0  0 
 24 46  1  0  0  0  0 
 25 47  1  0  0  0  0 
 25 48  1  0  0  0  0 
 27 49  1  0  0  0  0 
 27 50  1  0  0  0  0 
 28 51  1  0  0  0  0 
 31 52  1  0  0  0  0 
M  END
> <cdk:Title>
aminopterin

> <Conformer>
3

> <SuperDrugID>
SD000005

$$$$
aminopterin
  CDK     0628171801

 52 54  0  0  0  0  0  0  0  0999 V2000
   -3.0569   -5.3314    1.8630 N   0  0  0  0  0  0  0  0  0  0  0  0
   -2.6818   -5.4451    0.5738 C   0  0  0  0  0  0  0  0  0  0  0  0
   -1.9081   -4.4604   -0.0722 C   0  0  0  0  0  0  0  0  0  0  0  0
   -3.0623   -6.5470   -0.1218 N   0  0  0  0  0  0  0  0  0  0  0  0
   -1.6044   -4.6431   -1.4435 C   0  0  0  0  0  0  0  0  0  0  0  0
   -1.4224   -3.3610    0.5566 N   0  0  0  0  0  0  0  0  0  0  0  0
   -2.7333   -6.7213   -1.4277 C   0  0  0  0  0  0  0  0  0  0  0  0
   -0.8889   -3.6851   -2.0878 N   0  0  0  0  0  0  0  0  0  0  0  0
   -2.0198   -5.7673   -2.0816 N   0  0  0  0  0  0  0  0  0  0  0  0
   -0.6678   -2.4189   -0.0717 C   0  0  0  0  0  0  0  0  0  0  0  0
   -3.1163   -7.8430   -2.0549 N   0  0  0  0  0  0  0  0  0  0  0  0
   -0.4230   -2.5757   -1.4541 C   0  0  0  0  0  0  0  0  0  0  0  0
   -0.0879   -1.3182    0.7225 C   0  0  2  0  0  0  0  0  0  0  0  0
   -0.7560   -0.0781    0.5003 N   0  0  0  0  0  0  0  0  0  0  0  0
   -0.5379    1.0809    1.1933 C   0  0  0  0  0  0  0  0  0  0  0  0
   -1.1433    2.2545    0.7020 C   0  0  0  0  0  0  0  0  0  0  0  0
    0.2460    1.1737    2.3668 C   0  0  0  0  0  0  0  0  0  0  0  0
   -0.9666    3.4889    1.3538 C   0  0  0  0  0  0  0  0  0  0  0  0
    0.4011    2.4005    3.0326 C   0  0  0  0  0  0  0  0  0  0  0  0
   -0.1946    3.5887    2.5384 C   0  0  0  0  0  0  0  0  0  0  0  0
   -0.0111    4.8308    3.2196 C   0  0  0  0  0  0  0  0  0  0  0  0
   -0.4599    6.0212    2.7111 N   0  0  0  0  0  0  0  0  0  0  0  0
    0.5837    4.8465    4.3258 O   0  0  0  0  0  0  0  0  0  0  0  0
   -0.2911    7.3060    3.3295 C   0  0  1  0  0  0  0  0  0  0  0  0
   -0.5059    8.4606    2.3033 C   0  0  2  0  0  0  0  0  0  0  0  0
   -1.2146    7.4250    4.4840 C   0  0  0  0  0  0  0  0  0  0  0  0
    0.5138    8.4270    1.1295 C   0  0  1  0  0  0  0  0  0  0  0  0
   -2.5574    7.4865    4.3256 O   0  0  0  0  0  0  0  0  0  0  0  0
   -0.7706    7.4592    5.6540 O   0  0  0  0  0  0  0  0  0  0  0  0
    0.3636    9.5470    0.1803 C   0  0  0  0  0  0  0  0  0  0  0  0
   -0.0016    9.3140   -1.1032 O   0  0  0  0  0  0  0  0  0  0  0  0
    0.6036   10.7233    0.5372 O   0  0  0  0  0  0  0  0  0  0  0  0
   -3.5913   -6.0275    2.2794 H   0  0  0  0  0  0  0  0  0  0  0  0
   -2.8029   -4.5493    2.3788 H   0  0  0  0  0  0  0  0  0  0  0  0
   -3.6188   -8.5182   -1.5713 H   0  0  0  0  0  0  0  0  0  0  0  0
   -2.8905   -7.9845   -2.9874 H   0  0  0  0  0  0  0  0  0  0  0  0
    0.1147   -1.8810   -1.9779 H   0  0  0  0  0  0  0  0  0  0  0  0
    0.9691   -1.2063    0.4652 H   0  0  0  0  0  0  0  0  0  0  0  0
   -0.1519   -1.5842    1.7803 H   0  0  0  0  0  0  0  0  0  0  0  0
   -1.3971   -0.0442   -0.2281 H   0  0  0  0  0  0  0  0  0  0  0  0
   -1.7191    2.2185   -0.1417 H   0  0  0  0  0  0  0  0  0  0  0  0
    0.7103    0.3538    2.7592 H   0  0  0  0  0  0  0  0  0  0  0  0
   -1.4143    4.3127    0.9481 H   0  0  0  0  0  0  0  0  0  0  0  0
    0.9631    2.4107    3.8879 H   0  0  0  0  0  0  0  0  0  0  0  0
   -0.9319    6.0048    1.8640 H   0  0  0  0  0  0  0  0  0  0  0  0
    0.7405    7.3854    3.6935 H   0  0  0  0  0  0  0  0  0  0  0  0
   -0.4076    9.4167    2.8292 H   0  0  0  0  0  0  0  0  0  0  0  0
   -1.5219    8.4033    1.8962 H   0  0  0  0  0  0  0  0  0  0  0  0
    1.5305    8.4553    1.5294 H   0  0  0  0  0  0  0  0  0  0  0  0
    0.3902    7.4879    0.5846 H   0  0  0  0  0  0  0  0  0  0  0  0
   -3.1223    7.5760    5.1236 H   0  0  0  0  0  0  0  0  0  0  0  0
   -0.0849   10.0590   -1.7351 H   0  0  0  0  0  0  0  0  0  0  0  0
  1  2  1  0  0  0  0 
  2  3  2  0  0  0  0 
  2  4  1  0  0  0  0 
  3  5  1  0  0  0  0 
  3  6  1  0  0  0  0 
  4  7  2  0  0  0  0 
  5  8  1  0  0  0  0 
  5  9  2  0  0  0  0 
  6 10  2  0  0  0  0 
  7  9  1  0  0  0  0 
  7 11  1  0  0  0  0 
  8 12  2  0  0  0  0 
 10 12  1  0  0  0  0 
 10 13  1  0  0  0  0 
 13 14  1  0  0  0  0 
 14 15  1  0  0  0  0 
 15 16  2  0  0  0  0 
 15 17  1  0  0  0  0 
 16 18  1  0  0  0  0 
 17 19  2  0  0  0  0 
 18 20  2  0  0  0  0 
 19 20  1  0  0  0  0 
 20 21  1  0  0  0  0 
 21 22  1  0  0  0  0 
 21 23  2  0  0  0  0 
 24 22  1  0  0  0  0 
 24 25  1  0  0  0  0 
 24 26  1  0  0  0  0 
 25 27  1  0  0  0  0 
 26 28  1  0  0  0  0 
 26 29  2  0  0  0  0 
 27 30  1  0  0  0  0 
 30 31  1  0  0  0  0 
 30 32  2  0  0  0  0 
  1 33  1  0  0  0  0 
  1 34  1  0  0  0  0 
 11 35  1  0  0  0  0 
 11 36  1  0  0  0  0 
 12 37  1  0  0  0  0 
 13 38  1  0  0  0  0 
 13 39  1  0  0  0  0 
 14 40  1  0  0  0  0 
 16 41  1  0  0  0  0 
 17 42  1  0  0  0  0 
 18 43  1  0  0  0  0 
 19 44  1  0  0  0  0 
 22 45  1  0  0  0  0 
 24 46  1  0  0  0  0 
 25 47  1  0  0  0  0 
 25 48  1  0  0  0  0 
 27 49  1  0  0  0  0 
 27 50  1  0  0  0  0 
 28 51  1  0  0  0  0 
 31 52  1  0  0  0  0 
M  END
> <cdk:Title>
aminopterin

> <Conformer>
4

> <SuperDrugID>
SD000005

$$$$
aminopterin
  CDK     0628171801

 52 54  0  0  0  0  0  0  0  0999 V2000
   -1.0695   -5.6799    2.4567 N   0  0  0  0  0  0  0  0  0  0  0  0
   -0.3105   -5.8122    1.3539 C   0  0  0  0  0  0  0  0  0  0  0  0
    0.0044   -4.7162    0.5248 C   0  0  0  0  0  0  0  0  0  0  0  0
    0.1604   -7.0458    1.0326 N   0  0  0  0  0  0  0  0  0  0  0  0
    0.8379   -4.9591   -0.5952 C   0  0  0  0  0  0  0  0  0  0  0  0
   -0.4577   -3.4525    0.7247 N   0  0  0  0  0  0  0  0  0  0  0  0
    0.9361   -7.2561   -0.0627 C   0  0  0  0  0  0  0  0  0  0  0  0
    1.1772   -3.9223   -1.4004 N   0  0  0  0  0  0  0  0  0  0  0  0
    1.2780   -6.2132   -0.8591 N   0  0  0  0  0  0  0  0  0  0  0  0
   -0.1500   -2.4133   -0.1005 C   0  0  0  0  0  0  0  0  0  0  0  0
    1.3591   -8.4905   -0.3675 N   0  0  0  0  0  0  0  0  0  0  0  0
    0.7206   -2.6632   -1.1855 C   0  0  0  0  0  0  0  0  0  0  0  0
   -0.7827   -1.0957    0.1081 C   0  0  2  0  0  0  0  0  0  0  0  0
   -0.0498   -0.2580    1.0066 N   0  0  0  0  0  0  0  0  0  0  0  0
   -0.3779    1.0334    1.3257 C   0  0  0  0  0  0  0  0  0  0  0  0
    0.1763    1.5958    2.4950 C   0  0  0  0  0  0  0  0  0  0  0  0
   -1.2449    1.8373    0.5496 C   0  0  0  0  0  0  0  0  0  0  0  0
   -0.1713    2.8973    2.9080 C   0  0  0  0  0  0  0  0  0  0  0  0
   -1.5843    3.1397    0.9554 C   0  0  0  0  0  0  0  0  0  0  0  0
   -1.0754    3.6929    2.1581 C   0  0  0  0  0  0  0  0  0  0  0  0
   -1.4649    4.9927    2.6095 C   0  0  0  0  0  0  0  0  0  0  0  0
   -2.5221    5.6451    2.0388 N   0  0  0  0  0  0  0  0  0  0  0  0
   -0.8519    5.5393    3.5597 O   0  0  0  0  0  0  0  0  0  0  0  0
   -3.0478    6.9260    2.4174 C   0  0  1  0  0  0  0  0  0  0  0  0
   -3.6777    7.6459    1.1861 C   0  0  2  0  0  0  0  0  0  0  0  0
   -4.0489    6.7257    3.4919 C   0  0  0  0  0  0  0  0  0  0  0  0
   -2.6511    7.9568    0.0602 C   0  0  1  0  0  0  0  0  0  0  0  0
   -5.1921    6.0324    3.2639 O   0  0  0  0  0  0  0  0  0  0  0  0
   -3.8507    7.1816    4.6407 O   0  0  0  0  0  0  0  0  0  0  0  0
   -3.2720    8.5620   -1.1367 C   0  0  0  0  0  0  0  0  0  0  0  0
   -3.1875    7.9493   -2.3405 O   0  0  0  0  0  0  0  0  0  0  0  0
   -3.8669    9.6604   -1.0593 O   0  0  0  0  0  0  0  0  0  0  0  0
   -1.2705   -6.4574    3.0011 H   0  0  0  0  0  0  0  0  0  0  0  0
   -1.4148   -4.8095    2.7113 H   0  0  0  0  0  0  0  0  0  0  0  0
    1.1175   -9.2417    0.1964 H   0  0  0  0  0  0  0  0  0  0  0  0
    1.9023   -8.6346   -1.1588 H   0  0  0  0  0  0  0  0  0  0  0  0
    0.9986   -1.9182   -1.8265 H   0  0  0  0  0  0  0  0  0  0  0  0
   -1.7877   -1.2472    0.5103 H   0  0  0  0  0  0  0  0  0  0  0  0
   -0.8897   -0.6091   -0.8628 H   0  0  0  0  0  0  0  0  0  0  0  0
    0.7129   -0.6492    1.4639 H   0  0  0  0  0  0  0  0  0  0  0  0
    0.8307    1.0560    3.0672 H   0  0  0  0  0  0  0  0  0  0  0  0
   -1.6376    1.4896   -0.3254 H   0  0  0  0  0  0  0  0  0  0  0  0
    0.2398    3.2531    3.7759 H   0  0  0  0  0  0  0  0  0  0  0  0
   -2.2110    3.6745    0.3487 H   0  0  0  0  0  0  0  0  0  0  0  0
   -2.9716    5.1924    1.3116 H   0  0  0  0  0  0  0  0  0  0  0  0
   -2.2392    7.5654    2.7888 H   0  0  0  0  0  0  0  0  0  0  0  0
   -4.1237    8.5901    1.5181 H   0  0  0  0  0  0  0  0  0  0  0  0
   -4.4786    7.0264    0.7726 H   0  0  0  0  0  0  0  0  0  0  0  0
   -1.8887    8.6392    0.4482 H   0  0  0  0  0  0  0  0  0  0  0  0
   -2.1527    7.0308   -0.2366 H   0  0  0  0  0  0  0  0  0  0  0  0
   -5.8382    5.8857    3.9875 H   0  0  0  0  0  0  0  0  0  0  0  0
   -3.5754    8.3605   -3.1386 H   0  0  0  0  0  0  0  0  0  0  0  0
  1  2  1  0  0  0  0 
  2  3  2  0  0  0  0 
  2  4  1  0  0  0  0 
  3  5  1  0  0  0  0 
  3  6  1  0  0  0  0 
  4  7  2  0  0  0  0 
  5  8  1  0  0  0  0 
  5  9  2  0  0  0  0 
  6 10  2  0  0  0  0 
  7  9  1  0  0  0  0 
  7 11  1  0  0  0  0 
  8 12  2  0  0  0  0 
 10 12  1  0  0  0  0 
 10 13  1  0  0  0  0 
 13 14  1  0  0  0  0 
 14 15  1  0  0  0  0 
 15 16  2  0  0  0  0 
 15 17  1  0  0  0  0 
 16 18  1  0  0  0  0 
 17 19  2  0  0  0  0 
 18 20  2  0  0  0  0 
 19 20  1  0  0  0  0 
 20 21  1  0  0  0  0 
 21 22  1  0  0  0  0 
 21 23  2  0  0  0  0 
 24 22  1  0  0  0  0 
 24 25  1  0  0  0  0 
 24 26  1  0  0  0  0 
 25 27  1  0  0  0  0 
 26 28  1  0  0  0  0 
 26 29  2  0  0  0  0 
 27 30  1  0  0  0  0 
 30 31  1  0  0  0  0 
 30 32  2  0  0  0  0 
  1 33  1  0  0  0  0 
  1 34  1  0  0  0  0 
 11 35  1  0  0  0  0 
 11 36  1  0  0  0  0 
 12 37  1  0  0  0  0 
 13 38  1  0  0  0  0 
 13 39  1  0  0  0  0 
 14 40  1  0  0  0  0 
 16 41  1  0  0  0  0 
 17 42  1  0  0  0  0 
 18 43  1  0  0  0  0 
 19 44  1  0  0  0  0 
 22 45  1  0  0  0  0 
 24 46  1  0  0  0  0 
 25 47  1  0  0  0  0 
 25 48  1  0  0  0  0 
 27 49  1  0  0  0  0 
 27 50  1  0  0  0  0 
 28 51  1  0  0  0  0 
 31 52  1  0  0  0  0 
M  END
> <cdk:Title>
aminopterin

> <Conformer>
5

> <SuperDrugID>
SD000005

$$$$
aminopterin
  CDK     0628171801

 52 54  0  0  0  0  0  0  0  0999 V2000
   -3.7118   -4.2627   -1.7006 N   0  0  0  0  0  0  0  0  0  0  0  0
   -2.4832   -4.5918   -2.1409 C   0  0  0  0  0  0  0  0  0  0  0  0
   -1.3230   -3.9298   -1.6886 C   0  0  0  0  0  0  0  0  0  0  0  0
   -2.3651   -5.5996   -3.0459 N   0  0  0  0  0  0  0  0  0  0  0  0
   -0.0822   -4.3339   -2.2414 C   0  0  0  0  0  0  0  0  0  0  0  0
   -1.3242   -2.9485   -0.7454 N   0  0  0  0  0  0  0  0  0  0  0  0
   -1.1593   -5.9845   -3.5409 C   0  0  0  0  0  0  0  0  0  0  0  0
    1.0508   -3.7066   -1.8413 N   0  0  0  0  0  0  0  0  0  0  0  0
   -0.0316   -5.3427   -3.1452 N   0  0  0  0  0  0  0  0  0  0  0  0
   -0.1842   -2.3360   -0.3151 C   0  0  0  0  0  0  0  0  0  0  0  0
   -1.0738   -7.0043   -4.4087 N   0  0  0  0  0  0  0  0  0  0  0  0
    1.0402   -2.7218   -0.9082 C   0  0  0  0  0  0  0  0  0  0  0  0
   -0.2345   -1.3578    0.7944 C   0  0  2  0  0  0  0  0  0  0  0  0
   -0.5144   -0.0200    0.3630 N   0  0  0  0  0  0  0  0  0  0  0  0
   -0.5013    1.0928    1.1697 C   0  0  0  0  0  0  0  0  0  0  0  0
    0.2230    1.1759    2.3816 C   0  0  0  0  0  0  0  0  0  0  0  0
   -1.2518    2.2221    0.7763 C   0  0  0  0  0  0  0  0  0  0  0  0
    0.1478    2.3175    3.1979 C   0  0  0  0  0  0  0  0  0  0  0  0
   -1.3288    3.3681    1.5968 C   0  0  0  0  0  0  0  0  0  0  0  0
   -0.6561    3.4295    2.8448 C   0  0  0  0  0  0  0  0  0  0  0  0
   -0.7898    4.5398    3.7410 C   0  0  0  0  0  0  0  0  0  0  0  0
   -1.6876    5.5470    3.5150 N   0  0  0  0  0  0  0  0  0  0  0  0
   -0.0993    4.5844    4.7888 O   0  0  0  0  0  0  0  0  0  0  0  0
   -1.9900    6.6413    4.3931 C   0  0  1  0  0  0  0  0  0  0  0  0
   -2.4051    7.9044    3.5859 C   0  0  2  0  0  0  0  0  0  0  0  0
   -3.0967    6.2121    5.2810 C   0  0  0  0  0  0  0  0  0  0  0  0
   -1.3049    8.4488    2.6362 C   0  0  1  0  0  0  0  0  0  0  0  0
   -4.2401    5.6962    4.7701 O   0  0  0  0  0  0  0  0  0  0  0  0
   -3.0102    6.3090    6.5254 O   0  0  0  0  0  0  0  0  0  0  0  0
   -1.7900    9.6320    1.9018 C   0  0  0  0  0  0  0  0  0  0  0  0
   -2.2148    9.5211    0.6226 O   0  0  0  0  0  0  0  0  0  0  0  0
   -1.8423   10.7503    2.4609 O   0  0  0  0  0  0  0  0  0  0  0  0
   -4.4902   -4.7409   -2.0283 H   0  0  0  0  0  0  0  0  0  0  0  0
   -3.8255   -3.5442   -1.0594 H   0  0  0  0  0  0  0  0  0  0  0  0
   -1.8758   -7.4688   -4.6949 H   0  0  0  0  0  0  0  0  0  0  0  0
   -0.2070   -7.2852   -4.7442 H   0  0  0  0  0  0  0  0  0  0  0  0
    1.9235   -2.2860   -0.6335 H   0  0  0  0  0  0  0  0  0  0  0  0
    0.7198   -1.3930    1.3235 H   0  0  0  0  0  0  0  0  0  0  0  0
   -1.0097   -1.6671    1.5013 H   0  0  0  0  0  0  0  0  0  0  0  0
   -0.8004    0.0987   -0.5581 H   0  0  0  0  0  0  0  0  0  0  0  0
    0.8194    0.4090    2.6898 H   0  0  0  0  0  0  0  0  0  0  0  0
   -1.7645    2.2128   -0.1091 H   0  0  0  0  0  0  0  0  0  0  0  0
    0.6857    2.3148    4.0682 H   0  0  0  0  0  0  0  0  0  0  0  0
   -1.8935    4.1552    1.2692 H   0  0  0  0  0  0  0  0  0  0  0  0
   -2.2069    5.5054    2.6995 H   0  0  0  0  0  0  0  0  0  0  0  0
   -1.1205    6.9083    5.0041 H   0  0  0  0  0  0  0  0  0  0  0  0
   -2.6726    8.6961    4.2940 H   0  0  0  0  0  0  0  0  0  0  0  0
   -3.2942    7.6715    2.9924 H   0  0  0  0  0  0  0  0  0  0  0  0
   -0.4128    8.7172    3.2071 H   0  0  0  0  0  0  0  0  0  0  0  0
   -1.0183    7.6765    1.9190 H   0  0  0  0  0  0  0  0  0  0  0  0
   -4.9606    5.4139    5.3724 H   0  0  0  0  0  0  0  0  0  0  0  0
   -2.5745   10.3002    0.1495 H   0  0  0  0  0  0  0  0  0  0  0  0
  1  2  1  0  0  0  0 
  2  3  2  0  0  0  0 
  2  4  1  0  0  0  0 
  3  5  1  0  0  0  0 
  3  6  1  0  0  0  0 
  4  7  2  0  0  0  0 
  5  8  1  0  0  0  0 
  5  9  2  0  0  0  0 
  6 10  2  0  0  0  0 
  7  9  1  0  0  0  0 
  7 11  1  0  0  0  0 
  8 12  2  0  0  0  0 
 10 12  1  0  0  0  0 
 10 13  1  0  0  0  0 
 13 14  1  0  0  0  0 
 14 15  1  0  0  0  0 
 15 16  2  0  0  0  0 
 15 17  1  0  0  0  0 
 16 18  1  0  0  0  0 
 17 19  2  0  0  0  0 
 18 20  2  0  0  0  0 
 19 20  1  0  0  0  0 
 20 21  1  0  0  0  0 
 21 22  1  0  0  0  0 
 21 23  2  0  0  0  0 
 24 22  1  0  0  0  0 
 24 25  1  0  0  0  0 
 24 26  1  0  0  0  0 
 25 27  1  0  0  0  0 
 26 28  1  0  0  0  0 
 26 29  2  0  0  0  0 
 27 30  1  0  0  0  0 
 30 31  1  0  0  0  0 
 30 32  2  0  0  0  0 
  1 33  1  0  0  0  0 
  1 34  1  0  0  0  0 
 11 35  1  0  0  0  0 
 11 36  1  0  0  0  0 
 12 37  1  0  0  0  0 
 13 38  1  0  0  0  0 
 13 39  1  0  0  0  0 
 14 40  1  0  0  0  0 
 16 41  1  0  0  0  0 
 17 42  1  0  0  0  0 
 18 43  1  0  0  0  0 
 19 44  1  0  0  0  0 
 22 45  1  0  0  0  0 
 24 46  1  0  0  0  0 
 25 47  1  0  0  0  0 
 25 48  1  0  0  0  0 
 27 49  1  0  0  0  0 
 27 50  1  0  0  0  0 
 28 51  1  0  0  0  0 
 31 52  1  0  0  0  0 
M  END
> <cdk:Title>
aminopterin

> <Conformer>
6

> <SuperDrugID>
SD000005

$$$$
aminopterin
  CDK     0628171801

 52 54  0  0  0  0  0  0  0  0999 V2000
   -1.1982   -5.8421    2.0078 N   0  0  0  0  0  0  0  0  0  0  0  0
   -0.3877   -5.8894    0.9341 C   0  0  0  0  0  0  0  0  0  0  0  0
   -0.0013   -4.7308    0.2300 C   0  0  0  0  0  0  0  0  0  0  0  0
    0.0640   -7.1009    0.5173 N   0  0  0  0  0  0  0  0  0  0  0  0
    0.8939   -4.8902   -0.8570 C   0  0  0  0  0  0  0  0  0  0  0  0
   -0.4549   -3.4809    0.5157 N   0  0  0  0  0  0  0  0  0  0  0  0
    0.8942   -7.2326   -0.5492 C   0  0  0  0  0  0  0  0  0  0  0  0
    1.3044   -3.7914   -1.5375 N   0  0  0  0  0  0  0  0  0  0  0  0
    1.3126   -6.1283   -1.2188 N   0  0  0  0  0  0  0  0  0  0  0  0
   -0.0829   -2.3791   -0.1928 C   0  0  0  0  0  0  0  0  0  0  0  0
    1.2913   -8.4503   -0.9457 N   0  0  0  0  0  0  0  0  0  0  0  0
    0.8562   -2.5457   -1.2368 C   0  0  0  0  0  0  0  0  0  0  0  0
   -0.7326   -1.0781    0.0706 C   0  0  2  0  0  0  0  0  0  0  0  0
   -0.0232   -0.2506    0.9977 N   0  0  0  0  0  0  0  0  0  0  0  0
   -0.3840    1.0304    1.3342 C   0  0  0  0  0  0  0  0  0  0  0  0
    0.0066    1.5379    2.5910 C   0  0  0  0  0  0  0  0  0  0  0  0
   -1.1459    1.8734    0.4914 C   0  0  0  0  0  0  0  0  0  0  0  0
   -0.3894    2.8251    3.0100 C   0  0  0  0  0  0  0  0  0  0  0  0
   -1.5317    3.1596    0.9050 C   0  0  0  0  0  0  0  0  0  0  0  0
   -1.1751    3.6665    2.1804 C   0  0  0  0  0  0  0  0  0  0  0  0
   -1.5973    4.9735    2.5882 C   0  0  0  0  0  0  0  0  0  0  0  0
   -1.1821    5.5468    3.7595 N   0  0  0  0  0  0  0  0  0  0  0  0
   -2.3619    5.6385    1.8462 O   0  0  0  0  0  0  0  0  0  0  0  0
   -1.4796    6.8790    4.2110 C   0  0  1  0  0  0  0  0  0  0  0  0
   -1.4105    6.9752    5.7621 C   0  0  2  0  0  0  0  0  0  0  0  0
   -0.5052    7.8150    3.5967 C   0  0  0  0  0  0  0  0  0  0  0  0
   -2.4162    6.0546    6.5055 C   0  0  1  0  0  0  0  0  0  0  0  0
    0.8292    7.5735    3.6398 O   0  0  0  0  0  0  0  0  0  0  0  0
   -0.8922    8.8501    3.0112 O   0  0  0  0  0  0  0  0  0  0  0  0
   -2.2524    6.1746    7.9664 C   0  0  0  0  0  0  0  0  0  0  0  0
   -1.5197    5.2630    8.6499 O   0  0  0  0  0  0  0  0  0  0  0  0
   -2.7531    7.1409    8.5856 O   0  0  0  0  0  0  0  0  0  0  0  0
   -1.4439   -6.6632    2.4637 H   0  0  0  0  0  0  0  0  0  0  0  0
   -1.5359   -4.9917    2.3304 H   0  0  0  0  0  0  0  0  0  0  0  0
    0.9900   -9.2388   -0.4674 H   0  0  0  0  0  0  0  0  0  0  0  0
    1.8724   -8.5442   -1.7163 H   0  0  0  0  0  0  0  0  0  0  0  0
    1.1825   -1.7494   -1.7883 H   0  0  0  0  0  0  0  0  0  0  0  0
   -1.7342   -1.2556    0.4713 H   0  0  0  0  0  0  0  0  0  0  0  0
   -0.8537   -0.5697   -0.8870 H   0  0  0  0  0  0  0  0  0  0  0  0
    0.7203   -0.6506    1.4773 H   0  0  0  0  0  0  0  0  0  0  0  0
    0.5694    0.9618    3.2225 H   0  0  0  0  0  0  0  0  0  0  0  0
   -1.4317    1.5681   -0.4395 H   0  0  0  0  0  0  0  0  0  0  0  0
   -0.0991    3.1321    3.9407 H   0  0  0  0  0  0  0  0  0  0  0  0
   -2.0851    3.7220    0.2536 H   0  0  0  0  0  0  0  0  0  0  0  0
   -0.6027    5.0230    4.3306 H   0  0  0  0  0  0  0  0  0  0  0  0
   -2.4975    7.1589    3.9130 H   0  0  0  0  0  0  0  0  0  0  0  0
   -1.6101    8.0115    6.0551 H   0  0  0  0  0  0  0  0  0  0  0  0
   -0.3960    6.7292    6.0910 H   0  0  0  0  0  0  0  0  0  0  0  0
   -3.4426    6.3158    6.2310 H   0  0  0  0  0  0  0  0  0  0  0  0
   -2.2473    5.0140    6.2180 H   0  0  0  0  0  0  0  0  0  0  0  0
    1.4512    8.1855    3.1913 H   0  0  0  0  0  0  0  0  0  0  0  0
   -1.3766    5.3627    9.6151 H   0  0  0  0  0  0  0  0  0  0  0  0
  1  2  1  0  0  0  0 
  2  3  2  0  0  0  0 
  2  4  1  0  0  0  0 
  3  5  1  0  0  0  0 
  3  6  1  0  0  0  0 
  4  7  2  0  0  0  0 
  5  8  1  0  0  0  0 
  5  9  2  0  0  0  0 
  6 10  2  0  0  0  0 
  7  9  1  0  0  0  0 
  7 11  1  0  0  0  0 
  8 12  2  0  0  0  0 
 10 12  1  0  0  0  0 
 10 13  1  0  0  0  0 
 13 14  1  0  0  0  0 
 14 15  1  0  0  0  0 
 15 16  2  0  0  0  0 
 15 17  1  0  0  0  0 
 16 18  1  0  0  0  0 
 17 19  2  0  0  0  0 
 18 20  2  0  0  0  0 
 19 20  1  0  0  0  0 
 20 21  1  0  0  0  0 
 21 22  1  0  0  0  0 
 21 23  2  0  0  0  0 
 24 22  1  0  0  0  0 
 24 25  1  0  0  0  0 
 24 26  1  0  0  0  0 
 25 27  1  0  0  0  0 
 26 28  1  0  0  0  0 
 26 29  2  0  0  0  0 
 27 30  1  0  0  0  0 
 30 31  1  0  0  0  0 
 30 32  2  0  0  0  0 
  1 33  1  0  0  0  0 
  1 34  1  0  0  0  0 
 11 35  1  0  0  0  0 
 11 36  1  0  0  0  0 
 12 37  1  0  0  0  0 
 13 38  1  0  0  0  0 
 13 39  1  0  0  0  0 
 14 40  1  0  0  0  0 
 16 41  1  0  0  0  0 
 17 42  1  0  0  0  0 
 18 43  1  0  0  0  0 
 19 44  1  0  0  0  0 
 22 45  1  0  0  0  0 
 24 46  1  0  0  0  0 
 25 47  1  0  0  0  0 
 25 48  1  0  0  0  0 
 27 49  1  0  0  0  0 
 27 50  1  0  0  0  0 
 28 51  1  0  0  0  0 
 31 52  1  0  0  0  0 
M  END
> <cdk:Title>
aminopterin

> <Conformer>
7

> <SuperDrugID>
SD000005

$$$$
aminopterin
  CDK     0628171801

 52 54  0  0  0  0  0  0  0  0999 V2000
   -3.4006   -5.3608   -0.2897 N   0  0  0  0  0  0  0  0  0  0  0  0
   -2.1102   -5.7177   -0.2027 C   0  0  0  0  0  0  0  0  0  0  0  0
   -1.0803   -4.7656   -0.0645 C   0  0  0  0  0  0  0  0  0  0  0  0
   -1.8001   -7.0385   -0.2541 N   0  0  0  0  0  0  0  0  0  0  0  0
    0.2469   -5.2458    0.0530 C   0  0  0  0  0  0  0  0  0  0  0  0
   -1.2894   -3.4212   -0.0557 N   0  0  0  0  0  0  0  0  0  0  0  0
   -0.5202   -7.4792   -0.1590 C   0  0  0  0  0  0  0  0  0  0  0  0
    1.2499   -4.3420    0.2013 N   0  0  0  0  0  0  0  0  0  0  0  0
    0.4911   -6.5833    0.0030 N   0  0  0  0  0  0  0  0  0  0  0  0
   -0.2870   -2.5044    0.0614 C   0  0  0  0  0  0  0  0  0  0  0  0
   -0.2773   -8.7986   -0.2332 N   0  0  0  0  0  0  0  0  0  0  0  0
    1.0293   -2.9994    0.2130 C   0  0  0  0  0  0  0  0  0  0  0  0
   -0.6004   -1.0546   -0.0332 C   0  0  2  0  0  0  0  0  0  0  0  0
   -0.2002   -0.3107    1.1238 N   0  0  0  0  0  0  0  0  0  0  0  0
   -0.4256    1.0242    1.3559 C   0  0  0  0  0  0  0  0  0  0  0  0
   -1.1690    1.8756    0.5043 C   0  0  0  0  0  0  0  0  0  0  0  0
    0.1161    1.5784    2.5342 C   0  0  0  0  0  0  0  0  0  0  0  0
   -1.3680    3.2326    0.8294 C   0  0  0  0  0  0  0  0  0  0  0  0
   -0.0762    2.9357    2.8542 C   0  0  0  0  0  0  0  0  0  0  0  0
   -0.8205    3.7993    2.0099 C   0  0  0  0  0  0  0  0  0  0  0  0
   -0.9907    5.1808    2.3487 C   0  0  0  0  0  0  0  0  0  0  0  0
   -1.6250    6.0567    1.5095 N   0  0  0  0  0  0  0  0  0  0  0  0
   -0.5393    5.6076    3.4386 O   0  0  0  0  0  0  0  0  0  0  0  0
   -1.8272    7.4746    1.6694 C   0  0  1  0  0  0  0  0  0  0  0  0
   -2.4098    7.9609    3.0342 C   0  0  2  0  0  0  0  0  0  0  0  0
   -0.6113    8.2409    1.2971 C   0  0  0  0  0  0  0  0  0  0  0  0
   -3.7356    7.2619    3.4434 C   0  0  1  0  0  0  0  0  0  0  0  0
    0.6379    7.8136    1.6037 O   0  0  0  0  0  0  0  0  0  0  0  0
   -0.7094    9.3345    0.6934 O   0  0  0  0  0  0  0  0  0  0  0  0
   -4.2184    7.6847    4.7747 C   0  0  0  0  0  0  0  0  0  0  0  0
   -4.3852    6.7712    5.7615 O   0  0  0  0  0  0  0  0  0  0  0  0
   -4.4941    8.8828    5.0147 O   0  0  0  0  0  0  0  0  0  0  0  0
   -4.0845   -6.0424   -0.3816 H   0  0  0  0  0  0  0  0  0  0  0  0
   -3.6490   -4.4244   -0.2594 H   0  0  0  0  0  0  0  0  0  0  0  0
   -1.0130   -9.4228   -0.3435 H   0  0  0  0  0  0  0  0  0  0  0  0
    0.6304   -9.1336   -0.1794 H   0  0  0  0  0  0  0  0  0  0  0  0
    1.8204   -2.3650    0.3203 H   0  0  0  0  0  0  0  0  0  0  0  0
   -1.6769   -0.9294   -0.1784 H   0  0  0  0  0  0  0  0  0  0  0  0
   -0.0930   -0.6530   -0.9150 H   0  0  0  0  0  0  0  0  0  0  0  0
    0.2914   -0.7933    1.8066 H   0  0  0  0  0  0  0  0  0  0  0  0
   -1.5785    1.5162   -0.3609 H   0  0  0  0  0  0  0  0  0  0  0  0
    0.6602    0.9925    3.1745 H   0  0  0  0  0  0  0  0  0  0  0  0
   -1.9262    3.7971    0.1858 H   0  0  0  0  0  0  0  0  0  0  0  0
    0.3416    3.2835    3.7215 H   0  0  0  0  0  0  0  0  0  0  0  0
   -1.9613    5.6845    0.6826 H   0  0  0  0  0  0  0  0  0  0  0  0
   -2.5818    7.7186    0.9148 H   0  0  0  0  0  0  0  0  0  0  0  0
   -2.5967    9.0366    2.9653 H   0  0  0  0  0  0  0  0  0  0  0  0
   -1.6676    7.8175    3.8221 H   0  0  0  0  0  0  0  0  0  0  0  0
   -4.5092    7.4860    2.7057 H   0  0  0  0  0  0  0  0  0  0  0  0
   -3.5848    6.1804    3.4538 H   0  0  0  0  0  0  0  0  0  0  0  0
    0.7863    6.9462    2.0345 H   0  0  0  0  0  0  0  0  0  0  0  0
   -4.7140    7.0459    6.6445 H   0  0  0  0  0  0  0  0  0  0  0  0
  1  2  1  0  0  0  0 
  2  3  2  0  0  0  0 
  2  4  1  0  0  0  0 
  3  5  1  0  0  0  0 
  3  6  1  0  0  0  0 
  4  7  2  0  0  0  0 
  5  8  1  0  0  0  0 
  5  9  2  0  0  0  0 
  6 10  2  0  0  0  0 
  7  9  1  0  0  0  0 
  7 11  1  0  0  0  0 
  8 12  2  0  0  0  0 
 10 12  1  0  0  0  0 
 10 13  1  0  0  0  0 
 13 14  1  0  0  0  0 
 14 15  1  0  0  0  0 
 15 16  2  0  0  0  0 
 15 17  1  0  0  0  0 
 16 18  1  0  0  0  0 
 17 19  2  0  0  0  0 
 18 20  2  0  0  0  0 
 19 20  1  0  0  0  0 
 20 21  1  0  0  0  0 
 21 22  1  0  0  0  0 
 21 23  2  0  0  0  0 
 24 22  1  0  0  0  0 
 24 25  1  0  0  0  0 
 24 26  1  0  0  0  0 
 25 27  1  0  0  0  0 
 26 28  1  0  0  0  0 
 26 29  2  0  0  0  0 
 27 30  1  0  0  0  0 
 30 31  1  0  0  0  0 
 30 32  2  0  0  0  0 
  1 33  1  0  0  0  0 
  1 34  1  0  0  0  0 
 11 35  1  0  0  0  0 
 11 36  1  0  0  0  0 
 12 37  1  0  0  0  0 
 13 38  1  0  0  0  0 
 13 39  1  0  0  0  0 
 14 40  1  0  0  0  0 
 16 41  1  0  0  0  0 
 17 42  1  0  0  0  0 
 18 43  1  0  0  0  0 
 19 44  1  0  0  0  0 
 22 45  1  0  0  0  0 
 24 46  1  0  0  0  0 
 25 47  1  0  0  0  0 
 25 48  1  0  0  0  0 
 27 49  1  0  0  0  0 
 27 50  1  0  0  0  0 
 28 51  1  0  0  0  0 
 31 52  1  0  0  0  0 
M  END
> <cdk:Title>
aminopterin

> <Conformer>
8

> <SuperDrugID>
SD000005

$$$$
aminopterin
  CDK     0628171801

 52 54  0  0  0  0  0  0  0  0999 V2000
   -3.6231   -3.8515   -2.2367 N   0  0  0  0  0  0  0  0  0  0  0  0
   -2.3778   -4.2502   -2.5496 C   0  0  0  0  0  0  0  0  0  0  0  0
   -1.2364   -3.7193   -1.9148 C   0  0  0  0  0  0  0  0  0  0  0  0
   -2.2270   -5.2073   -3.5028 N   0  0  0  0  0  0  0  0  0  0  0  0
    0.0271   -4.2151   -2.3213 C   0  0  0  0  0  0  0  0  0  0  0  0
   -1.2777   -2.7809   -0.9307 N   0  0  0  0  0  0  0  0  0  0  0  0
   -1.0043   -5.6783   -3.8621 C   0  0  0  0  0  0  0  0  0  0  0  0
    1.1469   -3.7178   -1.7418 N   0  0  0  0  0  0  0  0  0  0  0  0
    0.1099   -5.1771   -3.2725 N   0  0  0  0  0  0  0  0  0  0  0  0
   -0.1571   -2.2979   -0.3253 C   0  0  0  0  0  0  0  0  0  0  0  0
   -0.8882   -6.6353   -4.7953 N   0  0  0  0  0  0  0  0  0  0  0  0
    1.0976   -2.7732   -0.7694 C   0  0  0  0  0  0  0  0  0  0  0  0
   -0.2741   -1.3469    0.7959 C   0  0  2  0  0  0  0  0  0  0  0  0
   -0.4134    0.0035    0.3434 N   0  0  0  0  0  0  0  0  0  0  0  0
   -0.4898    1.0941    1.1663 C   0  0  0  0  0  0  0  0  0  0  0  0
    0.0461    1.1079    2.4728 C   0  0  0  0  0  0  0  0  0  0  0  0
   -1.1478    2.2542    0.7065 C   0  0  0  0  0  0  0  0  0  0  0  0
   -0.1377    2.2108    3.3177 C   0  0  0  0  0  0  0  0  0  0  0  0
   -1.3372    3.3616    1.5590 C   0  0  0  0  0  0  0  0  0  0  0  0
   -0.8667    3.3499    2.8983 C   0  0  0  0  0  0  0  0  0  0  0  0
   -1.1244    4.4310    3.7965 C   0  0  0  0  0  0  0  0  0  0  0  0
   -0.7926    4.3391    5.1256 N   0  0  0  0  0  0  0  0  0  0  0  0
   -1.6759    5.4720    3.3651 O   0  0  0  0  0  0  0  0  0  0  0  0
   -0.9418    5.3256    6.1591 C   0  0  1  0  0  0  0  0  0  0  0  0
   -0.4222    6.7488    5.7909 C   0  0  2  0  0  0  0  0  0  0  0  0
   -2.3286    5.3648    6.6872 C   0  0  0  0  0  0  0  0  0  0  0  0
    1.0486    6.7769    5.2826 C   0  0  1  0  0  0  0  0  0  0  0  0
   -3.4181    5.1544    5.9084 O   0  0  0  0  0  0  0  0  0  0  0  0
   -2.5313    5.6241    7.8956 O   0  0  0  0  0  0  0  0  0  0  0  0
    1.3710    8.0368    4.5849 C   0  0  0  0  0  0  0  0  0  0  0  0
    1.5913    8.0471    3.2457 O   0  0  0  0  0  0  0  0  0  0  0  0
    1.4270    9.1177    5.2141 O   0  0  0  0  0  0  0  0  0  0  0  0
   -4.3841   -4.2492   -2.6883 H   0  0  0  0  0  0  0  0  0  0  0  0
   -3.7654   -3.1725   -1.5595 H   0  0  0  0  0  0  0  0  0  0  0  0
   -1.6799   -7.0073   -5.2153 H   0  0  0  0  0  0  0  0  0  0  0  0
   -0.0089   -6.9566   -5.0520 H   0  0  0  0  0  0  0  0  0  0  0  0
    1.9702   -2.4300   -0.3631 H   0  0  0  0  0  0  0  0  0  0  0  0
    0.6021   -1.4553    1.4395 H   0  0  0  0  0  0  0  0  0  0  0  0
   -1.1524   -1.6084    1.3910 H   0  0  0  0  0  0  0  0  0  0  0  0
   -0.5337    0.1480   -0.6091 H   0  0  0  0  0  0  0  0  0  0  0  0
    0.5778    0.3157    2.8324 H   0  0  0  0  0  0  0  0  0  0  0  0
   -1.5156    2.2908   -0.2479 H   0  0  0  0  0  0  0  0  0  0  0  0
    0.2734    2.1539    4.2500 H   0  0  0  0  0  0  0  0  0  0  0  0
   -1.8382    4.1746    1.1901 H   0  0  0  0  0  0  0  0  0  0  0  0
   -0.4087    3.4973    5.4157 H   0  0  0  0  0  0  0  0  0  0  0  0
   -0.3115    4.9609    6.9772 H   0  0  0  0  0  0  0  0  0  0  0  0
   -0.4963    7.3870    6.6757 H   0  0  0  0  0  0  0  0  0  0  0  0
   -1.0823    7.1844    5.0378 H   0  0  0  0  0  0  0  0  0  0  0  0
    1.7316    6.6498    6.1266 H   0  0  0  0  0  0  0  0  0  0  0  0
    1.2289    5.9509    4.5906 H   0  0  0  0  0  0  0  0  0  0  0  0
   -3.3266    4.9519    4.9551 H   0  0  0  0  0  0  0  0  0  0  0  0
    1.8067    8.8840    2.7805 H   0  0  0  0  0  0  0  0  0  0  0  0
  1  2  1  0  0  0  0 
  2  3  2  0  0  0  0 
  2  4  1  0  0  0  0 
  3  5  1  0  0  0  0 
  3  6  1  0  0  0  0 
  4  7  2  0  0  0  0 
  5  8  1  0  0  0  0 
  5  9  2  0  0  0  0 
  6 10  2  0  0  0  0 
  7  9  1  0  0  0  0 
  7 11  1  0  0  0  0 
  8 12  2  0  0  0  0 
 10 12  1  0  0  0  0 
 10 13  1  0  0  0  0 
 13 14  1  0  0  0  0 
 14 15  1  0  0  0  0 
 15 16  2  0  0  0  0 
 15 17  1  0  0  0  0 
 16 18  1  0  0  0  0 
 17 19  2  0  0  0  0 
 18 20  2  0  0  0  0 
 19 20  1  0  0  0  0 
 20 21  1  0  0  0  0 
 21 22  1  0  0  0  0 
 21 23  2  0  0  0  0 
 24 22  1  0  0  0  0 
 24 25  1  0  0  0  0 
 24 26  1  0  0  0  0 
 25 27  1  0  0  0  0 
 26 28  1  0  0  0  0 
 26 29  2  0  0  0  0 
 27 30  1  0  0  0  0 
 30 31  1  0  0  0  0 
 30 32  2  0  0  0  0 
  1 33  1  0  0  0  0 
  1 34  1  0  0  0  0 
 11 35  1  0  0  0  0 
 11 36  1  0  0  0  0 
 12 37  1  0  0  0  0 
 13 38  1  0  0  0  0 
 13 39  1  0  0  0  0 
 14 40  1  0  0  0  0 
 16 41  1  0  0  0  0 
 17 42  1  0  0  0  0 
 18 43  1  0  0  0  0 
 19 44  1  0  0  0  0 
 22 45  1  0  0  0  0 
 24 46  1  0  0  0  0 
 25 47  1  0  0  0  0 
 25 48  1  0  0  0  0 
 27 49  1  0  0  0  0 
 27 50  1  0  0  0  0 
 28 51  1  0  0  0  0 
 31 52  1  0  0  0  0 
M  END
> <cdk:Title>
aminopterin

> <Conformer>
9

> <SuperDrugID>
SD000005

$$$$
aminopterin
  CDK     0628171801

 52 54  0  0  0  0  0  0  0  0999 V2000
    0.5911   -3.2647   -4.1112 N   0  0  0  0  0  0  0  0  0  0  0  0
   -0.1166   -4.1252   -3.3549 C   0  0  0  0  0  0  0  0  0  0  0  0
   -0.4993   -3.8287   -2.0303 C   0  0  0  0  0  0  0  0  0  0  0  0
   -0.4636   -5.3225   -3.8948 N   0  0  0  0  0  0  0  0  0  0  0  0
   -1.2749   -4.7926   -1.3393 C   0  0  0  0  0  0  0  0  0  0  0  0
   -0.1467   -2.6913   -1.3746 N   0  0  0  0  0  0  0  0  0  0  0  0
   -1.1829   -6.2421   -3.1999 C   0  0  0  0  0  0  0  0  0  0  0  0
   -1.6764   -4.5274   -0.0721 N   0  0  0  0  0  0  0  0  0  0  0  0
   -1.5923   -5.9677   -1.9354 N   0  0  0  0  0  0  0  0  0  0  0  0
   -0.5159   -2.4370   -0.0880 C   0  0  0  0  0  0  0  0  0  0  0  0
   -1.4808   -7.4249   -3.7554 N   0  0  0  0  0  0  0  0  0  0  0  0
   -1.3340   -3.3823    0.5706 C   0  0  0  0  0  0  0  0  0  0  0  0
    0.0185   -1.2526    0.6138 C   0  0  2  0  0  0  0  0  0  0  0  0
   -0.8618   -0.1243    0.6094 N   0  0  0  0  0  0  0  0  0  0  0  0
   -0.5767    1.0676    1.2214 C   0  0  0  0  0  0  0  0  0  0  0  0
   -1.0511    2.2601    0.6369 C   0  0  0  0  0  0  0  0  0  0  0  0
    0.1921    1.1620    2.4033 C   0  0  0  0  0  0  0  0  0  0  0  0
   -0.7046    3.5157    1.1779 C   0  0  0  0  0  0  0  0  0  0  0  0
    0.5342    2.4110    2.9417 C   0  0  0  0  0  0  0  0  0  0  0  0
    0.1176    3.6209    2.3305 C   0  0  0  0  0  0  0  0  0  0  0  0
    0.5230    4.8768    2.8826 C   0  0  0  0  0  0  0  0  0  0  0  0
    0.0816    6.0710    2.3767 N   0  0  0  0  0  0  0  0  0  0  0  0
    1.3009    4.8843    3.8675 O   0  0  0  0  0  0  0  0  0  0  0  0
    0.3714    7.4028    2.8445 C   0  0  1  0  0  0  0  0  0  0  0  0
    0.2026    7.6435    4.3785 C   0  0  2  0  0  0  0  0  0  0  0  0
    1.6972    7.8854    2.3827 C   0  0  0  0  0  0  0  0  0  0  0  0
   -1.1717    7.2105    4.9673 C   0  0  1  0  0  0  0  0  0  0  0  0
    2.7687    7.0685    2.2655 O   0  0  0  0  0  0  0  0  0  0  0  0
    1.8723    9.0983    2.1256 O   0  0  0  0  0  0  0  0  0  0  0  0
   -1.1104    7.0221    6.4295 C   0  0  0  0  0  0  0  0  0  0  0  0
   -1.3468    5.8006    6.9611 O   0  0  0  0  0  0  0  0  0  0  0  0
   -0.8219    7.9723    7.1929 O   0  0  0  0  0  0  0  0  0  0  0  0
    0.8355   -3.5066   -5.0195 H   0  0  0  0  0  0  0  0  0  0  0  0
    0.8598   -2.4024   -3.7563 H   0  0  0  0  0  0  0  0  0  0  0  0
   -1.1875   -7.6247   -4.6587 H   0  0  0  0  0  0  0  0  0  0  0  0
   -1.9794   -8.0868   -3.2494 H   0  0  0  0  0  0  0  0  0  0  0  0
   -1.6500   -3.2315    1.5302 H   0  0  0  0  0  0  0  0  0  0  0  0
    0.9548   -0.9513    0.1349 H   0  0  0  0  0  0  0  0  0  0  0  0
    0.2543   -1.5500    1.6375 H   0  0  0  0  0  0  0  0  0  0  0  0
   -1.6681   -0.1770    0.0706 H   0  0  0  0  0  0  0  0  0  0  0  0
   -1.6356    2.2212   -0.2027 H   0  0  0  0  0  0  0  0  0  0  0  0
    0.5114    0.3241    2.8919 H   0  0  0  0  0  0  0  0  0  0  0  0
   -1.0616    4.3513    0.7096 H   0  0  0  0  0  0  0  0  0  0  0  0
    1.0971    2.4157    3.7953 H   0  0  0  0  0  0  0  0  0  0  0  0
   -0.4988    6.0210    1.6031 H   0  0  0  0  0  0  0  0  0  0  0  0
   -0.3768    8.0234    2.3417 H   0  0  0  0  0  0  0  0  0  0  0  0
    0.3295    8.7114    4.5802 H   0  0  0  0  0  0  0  0  0  0  0  0
    1.0089    7.1282    4.9064 H   0  0  0  0  0  0  0  0  0  0  0  0
   -1.9257    7.9688    4.7421 H   0  0  0  0  0  0  0  0  0  0  0  0
   -1.4997    6.2729    4.5129 H   0  0  0  0  0  0  0  0  0  0  0  0
    2.6941    6.1142    2.4667 H   0  0  0  0  0  0  0  0  0  0  0  0
   -1.3074    5.6662    7.9289 H   0  0  0  0  0  0  0  0  0  0  0  0
  1  2  1  0  0  0  0 
  2  3  2  0  0  0  0 
  2  4  1  0  0  0  0 
  3  5  1  0  0  0  0 
  3  6  1  0  0  0  0 
  4  7  2  0  0  0  0 
  5  8  1  0  0  0  0 
  5  9  2  0  0  0  0 
  6 10  2  0  0  0  0 
  7  9  1  0  0  0  0 
  7 11  1  0  0  0  0 
  8 12  2  0  0  0  0 
 10 12  1  0  0  0  0 
 10 13  1  0  0  0  0 
 13 14  1  0  0  0  0 
 14 15  1  0  0  0  0 
 15 16  2  0  0  0  0 
 15 17  1  0  0  0  0 
 16 18  1  0  0  0  0 
 17 19  2  0  0  0  0 
 18 20  2  0  0  0  0 
 19 20  1  0  0  0  0 
 20 21  1  0  0  0  0 
 21 22  1  0  0  0  0 
 21 23  2  0  0  0  0 
 24 22  1  0  0  0  0 
 24 25  1  0  0  0  0 
 24 26  1  0  0  0  0 
 25 27  1  0  0  0  0 
 26 28  1  0  0  0  0 
 26 29  2  0  0  0  0 
 27 30  1  0  0  0  0 
 30 31  1  0  0  0  0 
 30 32  2  0  0  0  0 
  1 33  1  0  0  0  0 
  1 34  1  0  0  0  0 
 11 35  1  0  0  0  0 
 11 36  1  0  0  0  0 
 12 37  1  0  0  0  0 
 13 38  1  0  0  0  0 
 13 39  1  0  0  0  0 
 14 40  1  0  0  0  0 
 16 41  1  0  0  0  0 
 17 42  1  0  0  0  0 
 18 43  1  0  0  0  0 
 19 44  1  0  0  0  0 
 22 45  1  0  0  0  0 
 24 46  1  0  0  0  0 
 25 47  1  0  0  0  0 
 25 48  1  0  0  0  0 
 27 49  1  0  0  0  0 
 27 50  1  0  0  0  0 
 28 51  1  0  0  0  0 
 31 52  1  0  0  0  0 
M  END
> <cdk:Title>
aminopterin

> <Conformer>
10

> <SuperDrugID>
SD000005

$$$$
