acemetacin
  CDK     0628171802

 47 49  0  0  0  0  0  0  0  0999 V2000
    0.5437   -0.7191    0.4316 C   0  0  0  0  0  0  0  0  0  0  0  0
    1.0695    0.4106    0.2892 O   0  0  0  0  0  0  0  0  0  0  0  0
   -0.6944   -0.8432    1.0503 N   0  0  0  0  0  0  0  0  0  0  0  0
    1.3487   -1.8113    0.0043 C   0  0  0  0  0  0  0  0  0  0  0  0
   -1.5853   -1.8605    0.8805 C   0  0  0  0  0  0  0  0  0  0  0  0
   -1.2361    0.0292    1.9574 C   0  0  0  0  0  0  0  0  0  0  0  0
    1.5073   -2.9499    0.8325 C   0  0  0  0  0  0  0  0  0  0  0  0
    2.0475   -1.7734   -1.2268 C   0  0  0  0  0  0  0  0  0  0  0  0
   -2.6610   -1.6791    1.7521 C   0  0  0  0  0  0  0  0  0  0  0  0
   -1.6016   -2.9565   -0.0176 C   0  0  0  0  0  0  0  0  0  0  0  0
   -0.6296    1.3111    2.4021 C   0  0  0  0  0  0  0  0  0  0  0  0
   -2.4382   -0.5014    2.4608 C   0  0  0  0  0  0  0  0  0  0  0  0
    2.3362   -4.0173    0.4411 C   0  0  0  0  0  0  0  0  0  0  0  0
    2.8912   -2.8335   -1.6099 C   0  0  0  0  0  0  0  0  0  0  0  0
   -3.7380   -2.5883    1.7948 C   0  0  0  0  0  0  0  0  0  0  0  0
   -2.6664   -3.8794    0.0196 C   0  0  0  0  0  0  0  0  0  0  0  0
   -3.2954    0.0437    3.5490 C   0  0  1  0  0  0  0  0  0  0  0  0
    3.0368   -3.9590   -0.7775 C   0  0  0  0  0  0  0  0  0  0  0  0
   -3.7303   -3.7043    0.9312 C   0  0  0  0  0  0  0  0  0  0  0  0
   -4.0216    1.2708    3.1814 C   0  0  0  0  0  0  0  0  0  0  0  0
    4.0581   -5.2293   -1.2338 Cl  0  0  0  0  0  0  0  0  0  0  0  0
   -4.7793   -4.5840    0.9280 O   0  0  0  0  0  0  0  0  0  0  0  0
   -3.9659    2.3362    4.0347 O   0  0  0  0  0  0  0  0  0  0  0  0
   -4.7161    1.2966    2.1381 O   0  0  0  0  0  0  0  0  0  0  0  0
   -4.6898   -5.5995    1.9434 C   0  0  0  0  0  0  0  0  0  0  0  0
   -4.5535    3.6339    3.8850 C   0  0  2  0  0  0  0  0  0  0  0  0
   -3.4874    4.6398    3.9731 C   0  0  0  0  0  0  0  0  0  0  0  0
   -3.4729    5.5437    4.9787 O   0  0  0  0  0  0  0  0  0  0  0  0
   -2.5654    4.6580    3.1269 O   0  0  0  0  0  0  0  0  0  0  0  0
    1.0226   -3.0110    1.7333 H   0  0  0  0  0  0  0  0  0  0  0  0
    1.9470   -0.9719   -1.8541 H   0  0  0  0  0  0  0  0  0  0  0  0
   -0.8684   -3.0878   -0.7133 H   0  0  0  0  0  0  0  0  0  0  0  0
   -0.5055    1.9731    1.5450 H   0  0  0  0  0  0  0  0  0  0  0  0
    0.3449    1.1195    2.8512 H   0  0  0  0  0  0  0  0  0  0  0  0
   -1.2349    1.8382    3.1363 H   0  0  0  0  0  0  0  0  0  0  0  0
    2.4319   -4.8305    1.0544 H   0  0  0  0  0  0  0  0  0  0  0  0
    3.3986   -2.7774   -2.4957 H   0  0  0  0  0  0  0  0  0  0  0  0
   -4.5251   -2.4472    2.4299 H   0  0  0  0  0  0  0  0  0  0  0  0
   -2.6732   -4.6751   -0.6242 H   0  0  0  0  0  0  0  0  0  0  0  0
   -4.0403   -0.6885    3.8609 H   0  0  0  0  0  0  0  0  0  0  0  0
   -2.6651    0.2313    4.4216 H   0  0  0  0  0  0  0  0  0  0  0  0
   -5.5619   -6.2487    1.8475 H   0  0  0  0  0  0  0  0  0  0  0  0
   -3.7930   -6.2106    1.8152 H   0  0  0  0  0  0  0  0  0  0  0  0
   -4.6966   -5.1660    2.9474 H   0  0  0  0  0  0  0  0  0  0  0  0
   -5.2744    3.7778    4.6934 H   0  0  0  0  0  0  0  0  0  0  0  0
   -5.0766    3.7448    2.9333 H   0  0  0  0  0  0  0  0  0  0  0  0
   -2.7429    6.1950    5.0465 H   0  0  0  0  0  0  0  0  0  0  0  0
  1  2  2  0  0  0  0 
  1  3  1  0  0  0  0 
  1  4  1  0  0  0  0 
  3  5  1  0  0  0  0 
  3  6  1  0  0  0  0 
  4  7  2  0  0  0  0 
  4  8  1  0  0  0  0 
  5  9  1  0  0  0  0 
  5 10  2  0  0  0  0 
  6 11  1  0  0  0  0 
  6 12  2  0  0  0  0 
  7 13  1  0  0  0  0 
  8 14  2  0  0  0  0 
  9 12  1  0  0  0  0 
  9 15  2  0  0  0  0 
 10 16  1  0  0  0  0 
 12 17  1  0  0  0  0 
 13 18  2  0  0  0  0 
 14 18  1  0  0  0  0 
 15 19  1  0  0  0  0 
 16 19  2  0  0  0  0 
 17 20  1  0  0  0  0 
 18 21  1  0  0  0  0 
 19 22  1  0  0  0  0 
 20 23  1  0  0  0  0 
 20 24  2  0  0  0  0 
 22 25  1  0  0  0  0 
 23 26  1  0  0  0  0 
 26 27  1  0  0  0  0 
 27 28  1  0  0  0  0 
 27 29  2  0  0  0  0 
  7 30  1  0  0  0  0 
  8 31  1  0  0  0  0 
 10 32  1  0  0  0  0 
 11 33  1  0  0  0  0 
 11 34  1  0  0  0  0 
 11 35  1  0  0  0  0 
 13 36  1  0  0  0  0 
 14 37  1  0  0  0  0 
 15 38  1  0  0  0  0 
 16 39  1  0  0  0  0 
 17 40  1  0  0  0  0 
 17 41  1  0  0  0  0 
 25 42  1  0  0  0  0 
 25 43  1  0  0  0  0 
 25 44  1  0  0  0  0 
 26 45  1  0  0  0  0 
 26 46  1  0  0  0  0 
 28 47  1  0  0  0  0 
M  END
> <cdk:Title>
acemetacin

> <Conformer>
1

> <SuperDrugID>
SD000024

$$$$
acemetacin
  CDK     0628171802

 47 49  0  0  0  0  0  0  0  0999 V2000
    0.9513   -0.5288    0.5941 C   0  0  0  0  0  0  0  0  0  0  0  0
    0.0190   -0.1687   -0.1633 O   0  0  0  0  0  0  0  0  0  0  0  0
    1.2049    0.1356    1.7878 N   0  0  0  0  0  0  0  0  0  0  0  0
    1.6381   -1.6740    0.1328 C   0  0  0  0  0  0  0  0  0  0  0  0
    2.3517    0.0994    2.5254 C   0  0  0  0  0  0  0  0  0  0  0  0
    0.3228    0.9517    2.4459 C   0  0  0  0  0  0  0  0  0  0  0  0
    2.2836   -1.6671   -1.1246 C   0  0  0  0  0  0  0  0  0  0  0  0
    1.6537   -2.8566    0.9096 C   0  0  0  0  0  0  0  0  0  0  0  0
    2.1766    0.8598    3.6849 C   0  0  0  0  0  0  0  0  0  0  0  0
    3.6057   -0.5175    2.2978 C   0  0  0  0  0  0  0  0  0  0  0  0
   -1.0518    1.3072    2.0020 C   0  0  0  0  0  0  0  0  0  0  0  0
    0.8890    1.3843    3.6558 C   0  0  0  0  0  0  0  0  0  0  0  0
    2.9376   -2.8195   -1.5946 C   0  0  0  0  0  0  0  0  0  0  0  0
    2.3056   -4.0103    0.4351 C   0  0  0  0  0  0  0  0  0  0  0  0
    3.1957    0.9930    4.6503 C   0  0  0  0  0  0  0  0  0  0  0  0
    4.6345   -0.3915    3.2526 C   0  0  0  0  0  0  0  0  0  0  0  0
    0.2324    2.1740    4.7309 C   0  0  1  0  0  0  0  0  0  0  0  0
    2.9492   -3.9942   -0.8181 C   0  0  0  0  0  0  0  0  0  0  0  0
    4.4385    0.3691    4.4250 C   0  0  0  0  0  0  0  0  0  0  0  0
   -0.7902    1.3442    5.4016 C   0  0  0  0  0  0  0  0  0  0  0  0
    3.7296   -5.3814   -1.3969 Cl  0  0  0  0  0  0  0  0  0  0  0  0
    5.4397    0.4914    5.3501 O   0  0  0  0  0  0  0  0  0  0  0  0
   -0.4188    0.0956    5.8197 O   0  0  0  0  0  0  0  0  0  0  0  0
   -1.9589    1.7716    5.5545 O   0  0  0  0  0  0  0  0  0  0  0  0
    6.3396    1.5778    5.0647 C   0  0  0  0  0  0  0  0  0  0  0  0
   -1.1961   -0.9122    6.4733 C   0  0  2  0  0  0  0  0  0  0  0  0
   -0.5070   -1.2938    7.7121 C   0  0  0  0  0  0  0  0  0  0  0  0
   -0.0435   -2.5548    7.8784 O   0  0  0  0  0  0  0  0  0  0  0  0
   -0.3342   -0.4512    8.6214 O   0  0  0  0  0  0  0  0  0  0  0  0
    2.2849   -0.8233   -1.7031 H   0  0  0  0  0  0  0  0  0  0  0  0
    1.1850   -2.8906    1.8201 H   0  0  0  0  0  0  0  0  0  0  0  0
    3.7984   -1.0455    1.4490 H   0  0  0  0  0  0  0  0  0  0  0  0
   -1.6265    0.3967    1.8254 H   0  0  0  0  0  0  0  0  0  0  0  0
   -0.9926    1.8865    1.0798 H   0  0  0  0  0  0  0  0  0  0  0  0
   -1.5992    1.9060    2.7293 H   0  0  0  0  0  0  0  0  0  0  0  0
    3.3995   -2.7974   -2.5059 H   0  0  0  0  0  0  0  0  0  0  0  0
    2.3018   -4.8611    1.0034 H   0  0  0  0  0  0  0  0  0  0  0  0
    3.0524    1.5364    5.5022 H   0  0  0  0  0  0  0  0  0  0  0  0
    5.5336   -0.8507    3.0899 H   0  0  0  0  0  0  0  0  0  0  0  0
    0.9512    2.4845    5.4891 H   0  0  0  0  0  0  0  0  0  0  0  0
   -0.1937    3.0864    4.3089 H   0  0  0  0  0  0  0  0  0  0  0  0
    7.0828    1.6201    5.8617 H   0  0  0  0  0  0  0  0  0  0  0  0
    6.8656    1.4201    4.1193 H   0  0  0  0  0  0  0  0  0  0  0  0
    5.8167    2.5380    5.0369 H   0  0  0  0  0  0  0  0  0  0  0  0
   -1.2586   -1.7736    5.8046 H   0  0  0  0  0  0  0  0  0  0  0  0
   -2.2121   -0.5744    6.6983 H   0  0  0  0  0  0  0  0  0  0  0  0
    0.4300   -2.8090    8.6976 H   0  0  0  0  0  0  0  0  0  0  0  0
  1  2  2  0  0  0  0 
  1  3  1  0  0  0  0 
  1  4  1  0  0  0  0 
  3  5  1  0  0  0  0 
  3  6  1  0  0  0  0 
  4  7  2  0  0  0  0 
  4  8  1  0  0  0  0 
  5  9  1  0  0  0  0 
  5 10  2  0  0  0  0 
  6 11  1  0  0  0  0 
  6 12  2  0  0  0  0 
  7 13  1  0  0  0  0 
  8 14  2  0  0  0  0 
  9 12  1  0  0  0  0 
  9 15  2  0  0  0  0 
 10 16  1  0  0  0  0 
 12 17  1  0  0  0  0 
 13 18  2  0  0  0  0 
 14 18  1  0  0  0  0 
 15 19  1  0  0  0  0 
 16 19  2  0  0  0  0 
 17 20  1  0  0  0  0 
 18 21  1  0  0  0  0 
 19 22  1  0  0  0  0 
 20 23  1  0  0  0  0 
 20 24  2  0  0  0  0 
 22 25  1  0  0  0  0 
 23 26  1  0  0  0  0 
 26 27  1  0  0  0  0 
 27 28  1  0  0  0  0 
 27 29  2  0  0  0  0 
  7 30  1  0  0  0  0 
  8 31  1  0  0  0  0 
 10 32  1  0  0  0  0 
 11 33  1  0  0  0  0 
 11 34  1  0  0  0  0 
 11 35  1  0  0  0  0 
 13 36  1  0  0  0  0 
 14 37  1  0  0  0  0 
 15 38  1  0  0  0  0 
 16 39  1  0  0  0  0 
 17 40  1  0  0  0  0 
 17 41  1  0  0  0  0 
 25 42  1  0  0  0  0 
 25 43  1  0  0  0  0 
 25 44  1  0  0  0  0 
 26 45  1  0  0  0  0 
 26 46  1  0  0  0  0 
 28 47  1  0  0  0  0 
M  END
> <cdk:Title>
acemetacin

> <Conformer>
2

> <SuperDrugID>
SD000024

$$$$
acemetacin
  CDK     0628171802

 47 49  0  0  0  0  0  0  0  0999 V2000
    0.5051   -0.7418    0.3406 C   0  0  0  0  0  0  0  0  0  0  0  0
    1.1225    0.3295    0.5469 O   0  0  0  0  0  0  0  0  0  0  0  0
   -0.8694   -0.8423    0.5392 N   0  0  0  0  0  0  0  0  0  0  0  0
    1.3477   -1.8042   -0.0456 C   0  0  0  0  0  0  0  0  0  0  0  0
   -1.7050   -1.8080    0.0575 C   0  0  0  0  0  0  0  0  0  0  0  0
   -1.6410    0.0418    1.2473 C   0  0  0  0  0  0  0  0  0  0  0  0
    1.4813   -2.9281    0.8008 C   0  0  0  0  0  0  0  0  0  0  0  0
    2.0702   -1.7646   -1.2608 C   0  0  0  0  0  0  0  0  0  0  0  0
   -3.0116   -1.5426    0.4755 C   0  0  0  0  0  0  0  0  0  0  0  0
   -1.4770   -2.9201   -0.7884 C   0  0  0  0  0  0  0  0  0  0  0  0
   -1.1561    1.2529    1.9631 C   0  0  0  0  0  0  0  0  0  0  0  0
   -2.9841   -0.3699    1.2224 C   0  0  0  0  0  0  0  0  0  0  0  0
    2.3163   -3.9989    0.4367 C   0  0  0  0  0  0  0  0  0  0  0  0
    2.9146   -2.8333   -1.6163 C   0  0  0  0  0  0  0  0  0  0  0  0
   -4.0947   -2.3657    0.1024 C   0  0  0  0  0  0  0  0  0  0  0  0
   -2.5435   -3.7616   -1.1564 C   0  0  0  0  0  0  0  0  0  0  0  0
   -4.1584    0.3295    1.8086 C   0  0  1  0  0  0  0  0  0  0  0  0
    3.0409   -3.9518   -0.7695 C   0  0  0  0  0  0  0  0  0  0  0  0
   -3.8525   -3.4996   -0.7003 C   0  0  0  0  0  0  0  0  0  0  0  0
   -4.4619    1.5515    1.0405 C   0  0  0  0  0  0  0  0  0  0  0  0
    4.0651   -5.2314   -1.1924 Cl  0  0  0  0  0  0  0  0  0  0  0  0
   -4.8891   -4.3128   -1.0794 O   0  0  0  0  0  0  0  0  0  0  0  0
   -4.5418    1.4496   -0.3182 O   0  0  0  0  0  0  0  0  0  0  0  0
   -4.6268    2.6467    1.6272 O   0  0  0  0  0  0  0  0  0  0  0  0
   -5.1376   -5.3896   -0.1575 C   0  0  0  0  0  0  0  0  0  0  0  0
   -4.8729    2.4627   -1.2706 C   0  0  2  0  0  0  0  0  0  0  0  0
   -5.6692    1.8306   -2.3307 C   0  0  0  0  0  0  0  0  0  0  0  0
   -5.2128    1.7719   -3.6033 O   0  0  0  0  0  0  0  0  0  0  0  0
   -6.7812    1.3229   -2.0606 O   0  0  0  0  0  0  0  0  0  0  0  0
    0.9726   -2.9786    1.6866 H   0  0  0  0  0  0  0  0  0  0  0  0
    1.9768   -0.9689   -1.9000 H   0  0  0  0  0  0  0  0  0  0  0  0
   -0.5581   -3.1306   -1.1642 H   0  0  0  0  0  0  0  0  0  0  0  0
   -0.7244    1.9557    1.2500 H   0  0  0  0  0  0  0  0  0  0  0  0
   -0.3974    0.9628    2.6922 H   0  0  0  0  0  0  0  0  0  0  0  0
   -1.9431    1.7768    2.5029 H   0  0  0  0  0  0  0  0  0  0  0  0
    2.3935   -4.8097    1.0579 H   0  0  0  0  0  0  0  0  0  0  0  0
    3.4322   -2.7914   -2.4962 H   0  0  0  0  0  0  0  0  0  0  0  0
   -5.0481   -2.1530    0.3940 H   0  0  0  0  0  0  0  0  0  0  0  0
   -2.3661   -4.5634   -1.7657 H   0  0  0  0  0  0  0  0  0  0  0  0
   -5.0472   -0.3012    1.7801 H   0  0  0  0  0  0  0  0  0  0  0  0
   -3.9651    0.5570    2.8605 H   0  0  0  0  0  0  0  0  0  0  0  0
   -5.9779   -5.9706   -0.5375 H   0  0  0  0  0  0  0  0  0  0  0  0
   -4.2740   -6.0539   -0.0750 H   0  0  0  0  0  0  0  0  0  0  0  0
   -5.4054   -5.0148    0.8335 H   0  0  0  0  0  0  0  0  0  0  0  0
   -3.9490    2.8716   -1.6815 H   0  0  0  0  0  0  0  0  0  0  0  0
   -5.4436    3.2774   -0.8188 H   0  0  0  0  0  0  0  0  0  0  0  0
   -5.7418    1.3265   -4.2980 H   0  0  0  0  0  0  0  0  0  0  0  0
  1  2  2  0  0  0  0 
  1  3  1  0  0  0  0 
  1  4  1  0  0  0  0 
  3  5  1  0  0  0  0 
  3  6  1  0  0  0  0 
  4  7  2  0  0  0  0 
  4  8  1  0  0  0  0 
  5  9  1  0  0  0  0 
  5 10  2  0  0  0  0 
  6 11  1  0  0  0  0 
  6 12  2  0  0  0  0 
  7 13  1  0  0  0  0 
  8 14  2  0  0  0  0 
  9 12  1  0  0  0  0 
  9 15  2  0  0  0  0 
 10 16  1  0  0  0  0 
 12 17  1  0  0  0  0 
 13 18  2  0  0  0  0 
 14 18  1  0  0  0  0 
 15 19  1  0  0  0  0 
 16 19  2  0  0  0  0 
 17 20  1  0  0  0  0 
 18 21  1  0  0  0  0 
 19 22  1  0  0  0  0 
 20 23  1  0  0  0  0 
 20 24  2  0  0  0  0 
 22 25  1  0  0  0  0 
 23 26  1  0  0  0  0 
 26 27  1  0  0  0  0 
 27 28  1  0  0  0  0 
 27 29  2  0  0  0  0 
  7 30  1  0  0  0  0 
  8 31  1  0  0  0  0 
 10 32  1  0  0  0  0 
 11 33  1  0  0  0  0 
 11 34  1  0  0  0  0 
 11 35  1  0  0  0  0 
 13 36  1  0  0  0  0 
 14 37  1  0  0  0  0 
 15 38  1  0  0  0  0 
 16 39  1  0  0  0  0 
 17 40  1  0  0  0  0 
 17 41  1  0  0  0  0 
 25 42  1  0  0  0  0 
 25 43  1  0  0  0  0 
 25 44  1  0  0  0  0 
 26 45  1  0  0  0  0 
 26 46  1  0  0  0  0 
 28 47  1  0  0  0  0 
M  END
> <cdk:Title>
acemetacin

> <Conformer>
3

> <SuperDrugID>
SD000024

$$$$
acemetacin
  CDK     0628171802

 47 49  0  0  0  0  0  0  0  0999 V2000
    0.4805   -0.7714    0.3848 C   0  0  0  0  0  0  0  0  0  0  0  0
    0.9365    0.3924    0.2900 O   0  0  0  0  0  0  0  0  0  0  0  0
   -0.7985   -0.9990    0.8825 N   0  0  0  0  0  0  0  0  0  0  0  0
    1.3771   -1.8041    0.0081 C   0  0  0  0  0  0  0  0  0  0  0  0
   -1.4933   -0.1612    1.7021 C   0  0  0  0  0  0  0  0  0  0  0  0
   -1.5972   -2.0928    0.6648 C   0  0  0  0  0  0  0  0  0  0  0  0
    1.5509   -2.9283    0.8494 C   0  0  0  0  0  0  0  0  0  0  0  0
    2.0940   -1.7526   -1.2111 C   0  0  0  0  0  0  0  0  0  0  0  0
   -2.6909   -0.7740    2.0840 C   0  0  0  0  0  0  0  0  0  0  0  0
   -1.1860    1.1223    2.2148 C   0  0  0  0  0  0  0  0  0  0  0  0
   -1.4162   -3.1636   -0.3539 C   0  0  0  0  0  0  0  0  0  0  0  0
   -2.7345   -2.0302    1.4889 C   0  0  0  0  0  0  0  0  0  0  0  0
    2.3610   -4.0044    0.4524 C   0  0  0  0  0  0  0  0  0  0  0  0
    2.9061   -2.8311   -1.6086 C   0  0  0  0  0  0  0  0  0  0  0  0
   -3.6177   -0.1310    2.9304 C   0  0  0  0  0  0  0  0  0  0  0  0
   -2.1085    1.7848    3.0481 C   0  0  0  0  0  0  0  0  0  0  0  0
   -3.7880   -3.0665    1.6791 C   0  0  1  0  0  0  0  0  0  0  0  0
    3.0253   -3.9674   -0.7866 C   0  0  0  0  0  0  0  0  0  0  0  0
   -3.3319    1.1703    3.3918 C   0  0  0  0  0  0  0  0  0  0  0  0
   -3.3467   -4.1297    2.6038 C   0  0  0  0  0  0  0  0  0  0  0  0
    3.9615   -5.2847   -1.2835 Cl  0  0  0  0  0  0  0  0  0  0  0  0
   -4.2309    1.8306    4.1828 O   0  0  0  0  0  0  0  0  0  0  0  0
   -2.3800   -5.0016    2.1969 O   0  0  0  0  0  0  0  0  0  0  0  0
   -3.8729   -4.2420    3.7366 O   0  0  0  0  0  0  0  0  0  0  0  0
   -5.1357    2.6517    3.4215 C   0  0  0  0  0  0  0  0  0  0  0  0
   -1.8762   -6.1324    2.9182 C   0  0  2  0  0  0  0  0  0  0  0  0
   -0.8725   -6.8120    2.0836 C   0  0  0  0  0  0  0  0  0  0  0  0
    0.4175   -6.9177    2.4810 O   0  0  0  0  0  0  0  0  0  0  0  0
   -1.2036   -7.2935    0.9763 O   0  0  0  0  0  0  0  0  0  0  0  0
    1.0760   -2.9833    1.7541 H   0  0  0  0  0  0  0  0  0  0  0  0
    2.0163   -0.9389   -1.8277 H   0  0  0  0  0  0  0  0  0  0  0  0
   -0.3086    1.5911    1.9969 H   0  0  0  0  0  0  0  0  0  0  0  0
   -1.0937   -4.0907    0.1183 H   0  0  0  0  0  0  0  0  0  0  0  0
   -0.6900   -2.8864   -1.1140 H   0  0  0  0  0  0  0  0  0  0  0  0
   -2.3523   -3.3375   -0.8880 H   0  0  0  0  0  0  0  0  0  0  0  0
    2.4556   -4.8122    1.0703 H   0  0  0  0  0  0  0  0  0  0  0  0
    3.3981   -2.7871   -2.5029 H   0  0  0  0  0  0  0  0  0  0  0  0
   -4.4928   -0.5826    3.2009 H   0  0  0  0  0  0  0  0  0  0  0  0
   -1.8920    2.7206    3.3983 H   0  0  0  0  0  0  0  0  0  0  0  0
   -4.7043   -2.6110    2.0611 H   0  0  0  0  0  0  0  0  0  0  0  0
   -4.0552   -3.5248    0.7267 H   0  0  0  0  0  0  0  0  0  0  0  0
   -5.7790    3.1824    4.1236 H   0  0  0  0  0  0  0  0  0  0  0  0
   -4.6002    3.3944    2.8228 H   0  0  0  0  0  0  0  0  0  0  0  0
   -5.7682    2.0448    2.7676 H   0  0  0  0  0  0  0  0  0  0  0  0
   -2.6953   -6.8242    3.1386 H   0  0  0  0  0  0  0  0  0  0  0  0
   -1.4278   -5.8096    3.8611 H   0  0  0  0  0  0  0  0  0  0  0  0
    1.0717   -7.3630    1.9009 H   0  0  0  0  0  0  0  0  0  0  0  0
  1  2  2  0  0  0  0 
  1  3  1  0  0  0  0 
  1  4  1  0  0  0  0 
  3  5  1  0  0  0  0 
  3  6  1  0  0  0  0 
  4  7  2  0  0  0  0 
  4  8  1  0  0  0  0 
  5  9  1  0  0  0  0 
  5 10  2  0  0  0  0 
  6 11  1  0  0  0  0 
  6 12  2  0  0  0  0 
  7 13  1  0  0  0  0 
  8 14  2  0  0  0  0 
  9 12  1  0  0  0  0 
  9 15  2  0  0  0  0 
 10 16  1  0  0  0  0 
 12 17  1  0  0  0  0 
 13 18  2  0  0  0  0 
 14 18  1  0  0  0  0 
 15 19  1  0  0  0  0 
 16 19  2  0  0  0  0 
 17 20  1  0  0  0  0 
 18 21  1  0  0  0  0 
 19 22  1  0  0  0  0 
 20 23  1  0  0  0  0 
 20 24  2  0  0  0  0 
 22 25  1  0  0  0  0 
 23 26  1  0  0  0  0 
 26 27  1  0  0  0  0 
 27 28  1  0  0  0  0 
 27 29  2  0  0  0  0 
  7 30  1  0  0  0  0 
  8 31  1  0  0  0  0 
 10 32  1  0  0  0  0 
 11 33  1  0  0  0  0 
 11 34  1  0  0  0  0 
 11 35  1  0  0  0  0 
 13 36  1  0  0  0  0 
 14 37  1  0  0  0  0 
 15 38  1  0  0  0  0 
 16 39  1  0  0  0  0 
 17 40  1  0  0  0  0 
 17 41  1  0  0  0  0 
 25 42  1  0  0  0  0 
 25 43  1  0  0  0  0 
 25 44  1  0  0  0  0 
 26 45  1  0  0  0  0 
 26 46  1  0  0  0  0 
 28 47  1  0  0  0  0 
M  END
> <cdk:Title>
acemetacin

> <Conformer>
4

> <SuperDrugID>
SD000024

$$$$
acemetacin
  CDK     0628171802

 47 49  0  0  0  0  0  0  0  0999 V2000
    0.5575   -0.7150    0.4680 C   0  0  0  0  0  0  0  0  0  0  0  0
    0.9921    0.4246    0.1740 O   0  0  0  0  0  0  0  0  0  0  0  0
   -0.5666   -0.8260    1.2743 N   0  0  0  0  0  0  0  0  0  0  0  0
    1.3489   -1.8143    0.0232 C   0  0  0  0  0  0  0  0  0  0  0  0
   -1.5066   -1.8088    1.2351 C   0  0  0  0  0  0  0  0  0  0  0  0
   -0.9207    0.0331    2.2796 C   0  0  0  0  0  0  0  0  0  0  0  0
    1.5252   -2.9523    0.8488 C   0  0  0  0  0  0  0  0  0  0  0  0
    2.0479   -1.7730   -1.2092 C   0  0  0  0  0  0  0  0  0  0  0  0
   -2.4113   -1.6225    2.2820 C   0  0  0  0  0  0  0  0  0  0  0  0
   -1.7094   -2.8749    0.3286 C   0  0  0  0  0  0  0  0  0  0  0  0
   -0.2206    1.2925    2.6398 C   0  0  0  0  0  0  0  0  0  0  0  0
   -2.0267   -0.4828    2.9770 C   0  0  0  0  0  0  0  0  0  0  0  0
    2.3497   -4.0207    0.4491 C   0  0  0  0  0  0  0  0  0  0  0  0
    2.8821   -2.8342   -1.6054 C   0  0  0  0  0  0  0  0  0  0  0  0
   -3.4956   -2.4956    2.4915 C   0  0  0  0  0  0  0  0  0  0  0  0
   -2.7991   -3.7492    0.5153 C   0  0  0  0  0  0  0  0  0  0  0  0
   -2.6605    0.0408    4.2155 C   0  0  1  0  0  0  0  0  0  0  0  0
    3.0284   -3.9659   -0.7828 C   0  0  0  0  0  0  0  0  0  0  0  0
   -3.6764   -3.5802    1.6086 C   0  0  0  0  0  0  0  0  0  0  0  0
   -3.5414    1.1915    3.9508 C   0  0  0  0  0  0  0  0  0  0  0  0
    4.0240   -5.2441   -1.2782 Cl  0  0  0  0  0  0  0  0  0  0  0  0
   -4.7060   -4.4627    1.7893 O   0  0  0  0  0  0  0  0  0  0  0  0
   -4.5941    1.0306    3.0987 O   0  0  0  0  0  0  0  0  0  0  0  0
   -3.3338    2.2848    4.5276 O   0  0  0  0  0  0  0  0  0  0  0  0
   -4.4395   -5.4218    2.8310 C   0  0  0  0  0  0  0  0  0  0  0  0
   -5.6025    2.0028    2.7974 C   0  0  2  0  0  0  0  0  0  0  0  0
   -6.5353    1.4763    1.7911 C   0  0  0  0  0  0  0  0  0  0  0  0
   -7.0843    2.3140    0.8783 O   0  0  0  0  0  0  0  0  0  0  0  0
   -6.8423    0.2622    1.7680 O   0  0  0  0  0  0  0  0  0  0  0  0
    1.0692   -3.0073    1.7618 H   0  0  0  0  0  0  0  0  0  0  0  0
    1.9656   -0.9665   -1.8323 H   0  0  0  0  0  0  0  0  0  0  0  0
   -1.0907   -3.0156   -0.4691 H   0  0  0  0  0  0  0  0  0  0  0  0
   -0.2459    1.9842    1.7974 H   0  0  0  0  0  0  0  0  0  0  0  0
    0.8151    1.0710    2.8941 H   0  0  0  0  0  0  0  0  0  0  0  0
   -0.6785    1.7962    3.4886 H   0  0  0  0  0  0  0  0  0  0  0  0
    2.4592   -4.8320    1.0632 H   0  0  0  0  0  0  0  0  0  0  0  0
    3.3889   -2.7724   -2.4917 H   0  0  0  0  0  0  0  0  0  0  0  0
   -4.1479   -2.3524    3.2623 H   0  0  0  0  0  0  0  0  0  0  0  0
   -2.9525   -4.5142   -0.1455 H   0  0  0  0  0  0  0  0  0  0  0  0
   -3.2653   -0.7292    4.6953 H   0  0  0  0  0  0  0  0  0  0  0  0
   -1.8806    0.2998    4.9343 H   0  0  0  0  0  0  0  0  0  0  0  0
   -5.2578   -6.1411    2.8570 H   0  0  0  0  0  0  0  0  0  0  0  0
   -3.5100   -5.9688    2.6519 H   0  0  0  0  0  0  0  0  0  0  0  0
   -4.3861   -4.9380    3.8087 H   0  0  0  0  0  0  0  0  0  0  0  0
   -5.1382    2.9134    2.4129 H   0  0  0  0  0  0  0  0  0  0  0  0
   -6.1633    2.2505    3.7034 H   0  0  0  0  0  0  0  0  0  0  0  0
   -7.7158    1.9789    0.2076 H   0  0  0  0  0  0  0  0  0  0  0  0
  1  2  2  0  0  0  0 
  1  3  1  0  0  0  0 
  1  4  1  0  0  0  0 
  3  5  1  0  0  0  0 
  3  6  1  0  0  0  0 
  4  7  2  0  0  0  0 
  4  8  1  0  0  0  0 
  5  9  1  0  0  0  0 
  5 10  2  0  0  0  0 
  6 11  1  0  0  0  0 
  6 12  2  0  0  0  0 
  7 13  1  0  0  0  0 
  8 14  2  0  0  0  0 
  9 12  1  0  0  0  0 
  9 15  2  0  0  0  0 
 10 16  1  0  0  0  0 
 12 17  1  0  0  0  0 
 13 18  2  0  0  0  0 
 14 18  1  0  0  0  0 
 15 19  1  0  0  0  0 
 16 19  2  0  0  0  0 
 17 20  1  0  0  0  0 
 18 21  1  0  0  0  0 
 19 22  1  0  0  0  0 
 20 23  1  0  0  0  0 
 20 24  2  0  0  0  0 
 22 25  1  0  0  0  0 
 23 26  1  0  0  0  0 
 26 27  1  0  0  0  0 
 27 28  1  0  0  0  0 
 27 29  2  0  0  0  0 
  7 30  1  0  0  0  0 
  8 31  1  0  0  0  0 
 10 32  1  0  0  0  0 
 11 33  1  0  0  0  0 
 11 34  1  0  0  0  0 
 11 35  1  0  0  0  0 
 13 36  1  0  0  0  0 
 14 37  1  0  0  0  0 
 15 38  1  0  0  0  0 
 16 39  1  0  0  0  0 
 17 40  1  0  0  0  0 
 17 41  1  0  0  0  0 
 25 42  1  0  0  0  0 
 25 43  1  0  0  0  0 
 25 44  1  0  0  0  0 
 26 45  1  0  0  0  0 
 26 46  1  0  0  0  0 
 28 47  1  0  0  0  0 
M  END
> <cdk:Title>
acemetacin

> <Conformer>
5

> <SuperDrugID>
SD000024

$$$$
acemetacin
  CDK     0628171802

 47 49  0  0  0  0  0  0  0  0999 V2000
    0.4884   -0.7401    0.3104 C   0  0  0  0  0  0  0  0  0  0  0  0
    1.1172    0.2995    0.6129 O   0  0  0  0  0  0  0  0  0  0  0  0
   -0.8981   -0.7886    0.3799 N   0  0  0  0  0  0  0  0  0  0  0  0
    1.3329   -1.8079   -0.0656 C   0  0  0  0  0  0  0  0  0  0  0  0
   -1.6755    0.0499    1.1210 C   0  0  0  0  0  0  0  0  0  0  0  0
   -1.7394   -1.6470   -0.2797 C   0  0  0  0  0  0  0  0  0  0  0  0
    1.4717   -2.9227    0.7909 C   0  0  0  0  0  0  0  0  0  0  0  0
    2.0779   -1.7667   -1.2659 C   0  0  0  0  0  0  0  0  0  0  0  0
   -3.0208   -0.2760    0.9364 C   0  0  0  0  0  0  0  0  0  0  0  0
   -1.3366    1.0937    2.0146 C   0  0  0  0  0  0  0  0  0  0  0  0
   -1.3452   -2.7085   -1.2438 C   0  0  0  0  0  0  0  0  0  0  0  0
   -3.0745   -1.3375    0.0369 C   0  0  0  0  0  0  0  0  0  0  0  0
    2.3187   -3.9922    0.4421 C   0  0  0  0  0  0  0  0  0  0  0  0
    2.9220   -2.8372   -1.6198 C   0  0  0  0  0  0  0  0  0  0  0  0
   -4.0487    0.4158    1.6108 C   0  0  0  0  0  0  0  0  0  0  0  0
   -2.3525    1.8052    2.6804 C   0  0  0  0  0  0  0  0  0  0  0  0
   -4.3074   -1.9982   -0.4750 C   0  0  1  0  0  0  0  0  0  0  0  0
    3.0367   -3.9553   -0.7703 C   0  0  0  0  0  0  0  0  0  0  0  0
   -3.7085    1.4792    2.4744 C   0  0  0  0  0  0  0  0  0  0  0  0
   -4.4746   -3.3579    0.0741 C   0  0  0  0  0  0  0  0  0  0  0  0
    4.0416   -5.2448   -1.2106 Cl  0  0  0  0  0  0  0  0  0  0  0  0
   -4.6766    2.1842    3.1385 O   0  0  0  0  0  0  0  0  0  0  0  0
   -4.6723   -4.4211   -0.7668 O   0  0  0  0  0  0  0  0  0  0  0  0
   -4.4779   -3.5098    1.3199 O   0  0  0  0  0  0  0  0  0  0  0  0
   -5.2113    3.2684    2.3565 C   0  0  0  0  0  0  0  0  0  0  0  0
   -4.8663   -5.7945   -0.3883 C   0  0  2  0  0  0  0  0  0  0  0  0
   -4.0135   -6.6765   -1.2001 C   0  0  0  0  0  0  0  0  0  0  0  0
   -4.3121   -6.9145   -2.4996 O   0  0  0  0  0  0  0  0  0  0  0  0
   -3.0140   -7.2396   -0.6987 O   0  0  0  0  0  0  0  0  0  0  0  0
    0.9603   -2.9594    1.6759 H   0  0  0  0  0  0  0  0  0  0  0  0
    2.0075   -0.9615   -1.8935 H   0  0  0  0  0  0  0  0  0  0  0  0
   -0.3687    1.3443    2.2055 H   0  0  0  0  0  0  0  0  0  0  0  0
   -0.7713   -3.4827   -0.7348 H   0  0  0  0  0  0  0  0  0  0  0  0
   -0.7442   -2.2640   -2.0398 H   0  0  0  0  0  0  0  0  0  0  0  0
   -2.2014   -3.1952   -1.7101 H   0  0  0  0  0  0  0  0  0  0  0  0
    2.4114   -4.7896    1.0773 H   0  0  0  0  0  0  0  0  0  0  0  0
    3.4524   -2.7951   -2.4954 H   0  0  0  0  0  0  0  0  0  0  0  0
   -5.0292    0.1612    1.4861 H   0  0  0  0  0  0  0  0  0  0  0  0
   -2.1004    2.5610    3.3201 H   0  0  0  0  0  0  0  0  0  0  0  0
   -5.1965   -1.4289   -0.2023 H   0  0  0  0  0  0  0  0  0  0  0  0
   -4.2778   -2.0215   -1.5686 H   0  0  0  0  0  0  0  0  0  0  0  0
   -5.9207    3.8212    2.9729 H   0  0  0  0  0  0  0  0  0  0  0  0
   -4.4291    3.9630    2.0378 H   0  0  0  0  0  0  0  0  0  0  0  0
   -5.7451    2.8923    1.4804 H   0  0  0  0  0  0  0  0  0  0  0  0
   -5.9096   -6.0574   -0.5673 H   0  0  0  0  0  0  0  0  0  0  0  0
   -4.6648   -5.9538    0.6741 H   0  0  0  0  0  0  0  0  0  0  0  0
   -3.7710   -7.5380   -3.0302 H   0  0  0  0  0  0  0  0  0  0  0  0
  1  2  2  0  0  0  0 
  1  3  1  0  0  0  0 
  1  4  1  0  0  0  0 
  3  5  1  0  0  0  0 
  3  6  1  0  0  0  0 
  4  7  2  0  0  0  0 
  4  8  1  0  0  0  0 
  5  9  1  0  0  0  0 
  5 10  2  0  0  0  0 
  6 11  1  0  0  0  0 
  6 12  2  0  0  0  0 
  7 13  1  0  0  0  0 
  8 14  2  0  0  0  0 
  9 12  1  0  0  0  0 
  9 15  2  0  0  0  0 
 10 16  1  0  0  0  0 
 12 17  1  0  0  0  0 
 13 18  2  0  0  0  0 
 14 18  1  0  0  0  0 
 15 19  1  0  0  0  0 
 16 19  2  0  0  0  0 
 17 20  1  0  0  0  0 
 18 21  1  0  0  0  0 
 19 22  1  0  0  0  0 
 20 23  1  0  0  0  0 
 20 24  2  0  0  0  0 
 22 25  1  0  0  0  0 
 23 26  1  0  0  0  0 
 26 27  1  0  0  0  0 
 27 28  1  0  0  0  0 
 27 29  2  0  0  0  0 
  7 30  1  0  0  0  0 
  8 31  1  0  0  0  0 
 10 32  1  0  0  0  0 
 11 33  1  0  0  0  0 
 11 34  1  0  0  0  0 
 11 35  1  0  0  0  0 
 13 36  1  0  0  0  0 
 14 37  1  0  0  0  0 
 15 38  1  0  0  0  0 
 16 39  1  0  0  0  0 
 17 40  1  0  0  0  0 
 17 41  1  0  0  0  0 
 25 42  1  0  0  0  0 
 25 43  1  0  0  0  0 
 25 44  1  0  0  0  0 
 26 45  1  0  0  0  0 
 26 46  1  0  0  0  0 
 28 47  1  0  0  0  0 
M  END
> <cdk:Title>
acemetacin

> <Conformer>
6

> <SuperDrugID>
SD000024

$$$$
acemetacin
  CDK     0628171802

 47 49  0  0  0  0  0  0  0  0999 V2000
    0.9536   -0.4086    0.3051 C   0  0  0  0  0  0  0  0  0  0  0  0
   -0.1613   -0.5772    0.8551 O   0  0  0  0  0  0  0  0  0  0  0  0
    1.3860    0.8852    0.0634 N   0  0  0  0  0  0  0  0  0  0  0  0
    1.6574   -1.5939   -0.0433 C   0  0  0  0  0  0  0  0  0  0  0  0
    2.6676    1.3355    0.1296 C   0  0  0  0  0  0  0  0  0  0  0  0
    0.5919    1.9576   -0.2385 C   0  0  0  0  0  0  0  0  0  0  0  0
    2.3146   -1.6960   -1.2931 C   0  0  0  0  0  0  0  0  0  0  0  0
    1.6664   -2.7210    0.8136 C   0  0  0  0  0  0  0  0  0  0  0  0
    2.6852    2.7136   -0.1040 C   0  0  0  0  0  0  0  0  0  0  0  0
    3.8761    0.6740    0.4453 C   0  0  0  0  0  0  0  0  0  0  0  0
   -0.8674    1.9394   -0.5289 C   0  0  0  0  0  0  0  0  0  0  0  0
    1.3719    3.1257   -0.3089 C   0  0  0  0  0  0  0  0  0  0  0  0
    2.9545   -2.8887   -1.6773 C   0  0  0  0  0  0  0  0  0  0  0  0
    2.3160   -3.9100    0.4372 C   0  0  0  0  0  0  0  0  0  0  0  0
    3.8851    3.4526   -0.0867 C   0  0  0  0  0  0  0  0  0  0  0  0
    5.0861    1.3931    0.4370 C   0  0  0  0  0  0  0  0  0  0  0  0
    0.9077    4.5214   -0.5450 C   0  0  1  0  0  0  0  0  0  0  0  0
    2.9609   -3.9980   -0.8107 C   0  0  0  0  0  0  0  0  0  0  0  0
    5.0991    2.7745    0.1491 C   0  0  0  0  0  0  0  0  0  0  0  0
    0.2870    5.0715    0.6725 C   0  0  0  0  0  0  0  0  0  0  0  0
    3.7358   -5.4337   -1.2612 Cl  0  0  0  0  0  0  0  0  0  0  0  0
    6.2899    3.4478    0.1319 O   0  0  0  0  0  0  0  0  0  0  0  0
   -1.0433    4.8608    0.8749 O   0  0  0  0  0  0  0  0  0  0  0  0
    0.9836    5.6955    1.5077 O   0  0  0  0  0  0  0  0  0  0  0  0
    6.8393    3.5718   -1.1931 C   0  0  0  0  0  0  0  0  0  0  0  0
   -1.8134    5.2217    2.0271 C   0  0  2  0  0  0  0  0  0  0  0  0
   -3.2094    4.7705    1.8972 C   0  0  0  0  0  0  0  0  0  0  0  0
   -4.0757    4.9575    2.9192 O   0  0  0  0  0  0  0  0  0  0  0  0
   -3.6273    4.1962    0.8655 O   0  0  0  0  0  0  0  0  0  0  0  0
    2.3208   -0.9057   -1.9432 H   0  0  0  0  0  0  0  0  0  0  0  0
    1.1989   -2.6862    1.7223 H   0  0  0  0  0  0  0  0  0  0  0  0
    3.8934   -0.3139    0.6897 H   0  0  0  0  0  0  0  0  0  0  0  0
   -1.4142    2.3423    0.3222 H   0  0  0  0  0  0  0  0  0  0  0  0
   -1.2347    0.9368   -0.7403 H   0  0  0  0  0  0  0  0  0  0  0  0
   -1.0869    2.5369   -1.4145 H   0  0  0  0  0  0  0  0  0  0  0  0
    3.4090   -2.9443   -2.5916 H   0  0  0  0  0  0  0  0  0  0  0  0
    2.3122   -4.7098    1.0758 H   0  0  0  0  0  0  0  0  0  0  0  0
    3.8884    4.4618   -0.2444 H   0  0  0  0  0  0  0  0  0  0  0  0
    5.9625    0.9100    0.6445 H   0  0  0  0  0  0  0  0  0  0  0  0
    1.7339    5.1672   -0.8481 H   0  0  0  0  0  0  0  0  0  0  0  0
    0.1888    4.5462   -1.3659 H   0  0  0  0  0  0  0  0  0  0  0  0
    7.8215    4.0365   -1.1080 H   0  0  0  0  0  0  0  0  0  0  0  0
    6.9657    2.5990   -1.6776 H   0  0  0  0  0  0  0  0  0  0  0  0
    6.2133    4.2109   -1.8211 H   0  0  0  0  0  0  0  0  0  0  0  0
   -1.7934    6.3059    2.1602 H   0  0  0  0  0  0  0  0  0  0  0  0
   -1.3759    4.7451    2.9077 H   0  0  0  0  0  0  0  0  0  0  0  0
   -4.9996    4.6373    2.8415 H   0  0  0  0  0  0  0  0  0  0  0  0
  1  2  2  0  0  0  0 
  1  3  1  0  0  0  0 
  1  4  1  0  0  0  0 
  3  5  1  0  0  0  0 
  3  6  1  0  0  0  0 
  4  7  2  0  0  0  0 
  4  8  1  0  0  0  0 
  5  9  1  0  0  0  0 
  5 10  2  0  0  0  0 
  6 11  1  0  0  0  0 
  6 12  2  0  0  0  0 
  7 13  1  0  0  0  0 
  8 14  2  0  0  0  0 
  9 12  1  0  0  0  0 
  9 15  2  0  0  0  0 
 10 16  1  0  0  0  0 
 12 17  1  0  0  0  0 
 13 18  2  0  0  0  0 
 14 18  1  0  0  0  0 
 15 19  1  0  0  0  0 
 16 19  2  0  0  0  0 
 17 20  1  0  0  0  0 
 18 21  1  0  0  0  0 
 19 22  1  0  0  0  0 
 20 23  1  0  0  0  0 
 20 24  2  0  0  0  0 
 22 25  1  0  0  0  0 
 23 26  1  0  0  0  0 
 26 27  1  0  0  0  0 
 27 28  1  0  0  0  0 
 27 29  2  0  0  0  0 
  7 30  1  0  0  0  0 
  8 31  1  0  0  0  0 
 10 32  1  0  0  0  0 
 11 33  1  0  0  0  0 
 11 34  1  0  0  0  0 
 11 35  1  0  0  0  0 
 13 36  1  0  0  0  0 
 14 37  1  0  0  0  0 
 15 38  1  0  0  0  0 
 16 39  1  0  0  0  0 
 17 40  1  0  0  0  0 
 17 41  1  0  0  0  0 
 25 42  1  0  0  0  0 
 25 43  1  0  0  0  0 
 25 44  1  0  0  0  0 
 26 45  1  0  0  0  0 
 26 46  1  0  0  0  0 
 28 47  1  0  0  0  0 
M  END
> <cdk:Title>
acemetacin

> <Conformer>
7

> <SuperDrugID>
SD000024

$$$$
acemetacin
  CDK     0628171802

 47 49  0  0  0  0  0  0  0  0999 V2000
    0.4849   -0.7548    0.3600 C   0  0  0  0  0  0  0  0  0  0  0  0
    1.0065    0.3849    0.3871 O   0  0  0  0  0  0  0  0  0  0  0  0
   -0.8413   -0.9403    0.7267 N   0  0  0  0  0  0  0  0  0  0  0  0
    1.3607   -1.8063   -0.0118 C   0  0  0  0  0  0  0  0  0  0  0  0
   -1.5586   -0.1248    1.5504 C   0  0  0  0  0  0  0  0  0  0  0  0
   -1.6648   -1.9721    0.3587 C   0  0  0  0  0  0  0  0  0  0  0  0
    1.5218   -2.9307    0.8330 C   0  0  0  0  0  0  0  0  0  0  0  0
    2.0848   -1.7593   -1.2257 C   0  0  0  0  0  0  0  0  0  0  0  0
   -2.8245   -0.6776    1.7559 C   0  0  0  0  0  0  0  0  0  0  0  0
   -1.2149    1.0694    2.2304 C   0  0  0  0  0  0  0  0  0  0  0  0
   -1.3863   -3.0428   -0.6336 C   0  0  0  0  0  0  0  0  0  0  0  0
   -2.8878   -1.8646    1.0356 C   0  0  0  0  0  0  0  0  0  0  0  0
    2.3506   -4.0025    0.4509 C   0  0  0  0  0  0  0  0  0  0  0  0
    2.9095   -2.8335   -1.6097 C   0  0  0  0  0  0  0  0  0  0  0  0
   -3.7703   -0.0744    2.6084 C   0  0  0  0  0  0  0  0  0  0  0  0
   -2.1533    1.6900    3.0807 C   0  0  0  0  0  0  0  0  0  0  0  0
   -3.9828   -2.8682    1.0789 C   0  0  1  0  0  0  0  0  0  0  0  0
    3.0361   -3.9632   -0.7786 C   0  0  0  0  0  0  0  0  0  0  0  0
   -3.4370    1.1300    3.2608 C   0  0  0  0  0  0  0  0  0  0  0  0
   -3.5479   -4.0120    1.9034 C   0  0  0  0  0  0  0  0  0  0  0  0
    3.9988   -5.2688   -1.2633 Cl  0  0  0  0  0  0  0  0  0  0  0  0
   -4.3470    1.7286    4.0901 O   0  0  0  0  0  0  0  0  0  0  0  0
   -3.0109   -3.7414    3.1305 O   0  0  0  0  0  0  0  0  0  0  0  0
   -3.6491   -5.1824    1.4677 O   0  0  0  0  0  0  0  0  0  0  0  0
   -5.1396    2.7310    3.4279 C   0  0  0  0  0  0  0  0  0  0  0  0
   -2.5964   -4.6380    4.1626 C   0  0  2  0  0  0  0  0  0  0  0  0
   -3.2306   -4.1896    5.4095 C   0  0  0  0  0  0  0  0  0  0  0  0
   -2.4890   -3.7863    6.4683 O   0  0  0  0  0  0  0  0  0  0  0  0
   -4.4777   -4.1531    5.5004 O   0  0  0  0  0  0  0  0  0  0  0  0
    1.0262   -2.9853    1.7274 H   0  0  0  0  0  0  0  0  0  0  0  0
    2.0034   -0.9512   -1.8482 H   0  0  0  0  0  0  0  0  0  0  0  0
   -0.2943    1.4946    2.1341 H   0  0  0  0  0  0  0  0  0  0  0  0
   -0.8979   -3.8874   -0.1487 H   0  0  0  0  0  0  0  0  0  0  0  0
   -0.7554   -2.6572   -1.4318 H   0  0  0  0  0  0  0  0  0  0  0  0
   -2.2956   -3.4050   -1.1119 H   0  0  0  0  0  0  0  0  0  0  0  0
    2.4456   -4.8120    1.0684 H   0  0  0  0  0  0  0  0  0  0  0  0
    3.4100   -2.7902   -2.5007 H   0  0  0  0  0  0  0  0  0  0  0  0
   -4.6847   -0.4979    2.7663 H   0  0  0  0  0  0  0  0  0  0  0  0
   -1.9010    2.5510    3.5725 H   0  0  0  0  0  0  0  0  0  0  0  0
   -4.8779   -2.4519    1.5406 H   0  0  0  0  0  0  0  0  0  0  0  0
   -4.2671   -3.1855    0.0730 H   0  0  0  0  0  0  0  0  0  0  0  0
   -5.8629    3.1201    4.1450 H   0  0  0  0  0  0  0  0  0  0  0  0
   -4.5207    3.5629    3.0845 H   0  0  0  0  0  0  0  0  0  0  0  0
   -5.6909    2.3151    2.5809 H   0  0  0  0  0  0  0  0  0  0  0  0
   -1.5110   -4.5870    4.2546 H   0  0  0  0  0  0  0  0  0  0  0  0
   -2.8830   -5.6700    3.9499 H   0  0  0  0  0  0  0  0  0  0  0  0
   -2.9281   -3.4767    7.2911 H   0  0  0  0  0  0  0  0  0  0  0  0
  1  2  2  0  0  0  0 
  1  3  1  0  0  0  0 
  1  4  1  0  0  0  0 
  3  5  1  0  0  0  0 
  3  6  1  0  0  0  0 
  4  7  2  0  0  0  0 
  4  8  1  0  0  0  0 
  5  9  1  0  0  0  0 
  5 10  2  0  0  0  0 
  6 11  1  0  0  0  0 
  6 12  2  0  0  0  0 
  7 13  1  0  0  0  0 
  8 14  2  0  0  0  0 
  9 12  1  0  0  0  0 
  9 15  2  0  0  0  0 
 10 16  1  0  0  0  0 
 12 17  1  0  0  0  0 
 13 18  2  0  0  0  0 
 14 18  1  0  0  0  0 
 15 19  1  0  0  0  0 
 16 19  2  0  0  0  0 
 17 20  1  0  0  0  0 
 18 21  1  0  0  0  0 
 19 22  1  0  0  0  0 
 20 23  1  0  0  0  0 
 20 24  2  0  0  0  0 
 22 25  1  0  0  0  0 
 23 26  1  0  0  0  0 
 26 27  1  0  0  0  0 
 27 28  1  0  0  0  0 
 27 29  2  0  0  0  0 
  7 30  1  0  0  0  0 
  8 31  1  0  0  0  0 
 10 32  1  0  0  0  0 
 11 33  1  0  0  0  0 
 11 34  1  0  0  0  0 
 11 35  1  0  0  0  0 
 13 36  1  0  0  0  0 
 14 37  1  0  0  0  0 
 15 38  1  0  0  0  0 
 16 39  1  0  0  0  0 
 17 40  1  0  0  0  0 
 17 41  1  0  0  0  0 
 25 42  1  0  0  0  0 
 25 43  1  0  0  0  0 
 25 44  1  0  0  0  0 
 26 45  1  0  0  0  0 
 26 46  1  0  0  0  0 
 28 47  1  0  0  0  0 
M  END
> <cdk:Title>
acemetacin

> <Conformer>
8

> <SuperDrugID>
SD000024

$$$$
acemetacin
  CDK     0628171802

 47 49  0  0  0  0  0  0  0  0999 V2000
    0.5146   -0.7299    0.3776 C   0  0  0  0  0  0  0  0  0  0  0  0
    1.1138    0.3706    0.3421 O   0  0  0  0  0  0  0  0  0  0  0  0
   -0.8189   -0.7998    0.7799 N   0  0  0  0  0  0  0  0  0  0  0  0
    1.3448   -1.8135   -0.0042 C   0  0  0  0  0  0  0  0  0  0  0  0
   -1.4867    0.1867    1.4468 C   0  0  0  0  0  0  0  0  0  0  0  0
   -1.7182   -1.8177    0.5749 C   0  0  0  0  0  0  0  0  0  0  0  0
    1.4984   -2.9437    0.8319 C   0  0  0  0  0  0  0  0  0  0  0  0
    2.0567   -1.7683   -1.2268 C   0  0  0  0  0  0  0  0  0  0  0  0
   -2.7998   -0.2228    1.6954 C   0  0  0  0  0  0  0  0  0  0  0  0
   -1.0740    1.4631    1.9042 C   0  0  0  0  0  0  0  0  0  0  0  0
   -1.5251   -3.0528   -0.2298 C   0  0  0  0  0  0  0  0  0  0  0  0
   -2.9539   -1.5024    1.1736 C   0  0  0  0  0  0  0  0  0  0  0  0
    2.3352   -4.0100    0.4465 C   0  0  0  0  0  0  0  0  0  0  0  0
    2.8933   -2.8322   -1.6096 C   0  0  0  0  0  0  0  0  0  0  0  0
   -3.7260    0.6105    2.3556 C   0  0  0  0  0  0  0  0  0  0  0  0
   -1.9926    2.3121    2.5519 C   0  0  0  0  0  0  0  0  0  0  0  0
   -4.1994   -2.3273    1.2200 C   0  0  1  0  0  0  0  0  0  0  0  0
    3.0379   -3.9558   -0.7735 C   0  0  0  0  0  0  0  0  0  0  0  0
   -3.3248    1.9002    2.7600 C   0  0  0  0  0  0  0  0  0  0  0  0
   -4.1209   -3.4041    2.2249 C   0  0  0  0  0  0  0  0  0  0  0  0
    4.0519   -5.2302   -1.2350 Cl  0  0  0  0  0  0  0  0  0  0  0  0
   -4.2086    2.7441    3.3759 O   0  0  0  0  0  0  0  0  0  0  0  0
   -4.9814   -3.3981    3.2857 O   0  0  0  0  0  0  0  0  0  0  0  0
   -3.2786   -4.3220    2.0896 O   0  0  0  0  0  0  0  0  0  0  0  0
   -5.0389    3.4646    2.4465 C   0  0  0  0  0  0  0  0  0  0  0  0
   -5.0168   -4.3201    4.3888 C   0  0  2  0  0  0  0  0  0  0  0  0
   -4.7549   -3.6271    5.6598 C   0  0  0  0  0  0  0  0  0  0  0  0
   -4.6834   -4.3381    6.8063 O   0  0  0  0  0  0  0  0  0  0  0  0
   -4.5852   -2.3875    5.7149 O   0  0  0  0  0  0  0  0  0  0  0  0
    1.0029   -2.9976    1.7271 H   0  0  0  0  0  0  0  0  0  0  0  0
    1.9680   -0.9573   -1.8469 H   0  0  0  0  0  0  0  0  0  0  0  0
   -0.1203    1.7973    1.7834 H   0  0  0  0  0  0  0  0  0  0  0  0
   -1.2812   -3.8903    0.4237 H   0  0  0  0  0  0  0  0  0  0  0  0
   -0.7430   -2.9330   -0.9718 H   0  0  0  0  0  0  0  0  0  0  0  0
   -2.4229   -3.2970   -0.7944 H   0  0  0  0  0  0  0  0  0  0  0  0
    2.4293   -4.8236    1.0598 H   0  0  0  0  0  0  0  0  0  0  0  0
    3.3924   -2.7817   -2.5004 H   0  0  0  0  0  0  0  0  0  0  0  0
   -4.6819    0.3033    2.5343 H   0  0  0  0  0  0  0  0  0  0  0  0
   -1.6896    3.2351    2.8729 H   0  0  0  0  0  0  0  0  0  0  0  0
   -5.0639   -1.7004    1.4454 H   0  0  0  0  0  0  0  0  0  0  0  0
   -4.4046   -2.7672    0.2441 H   0  0  0  0  0  0  0  0  0  0  0  0
   -5.6915    4.1283    3.0153 H   0  0  0  0  0  0  0  0  0  0  0  0
   -4.4417    4.0774    1.7652 H   0  0  0  0  0  0  0  0  0  0  0  0
   -5.6697    2.7840    1.8679 H   0  0  0  0  0  0  0  0  0  0  0  0
   -4.2811   -5.1202    4.2719 H   0  0  0  0  0  0  0  0  0  0  0  0
   -6.0051   -4.7804    4.4283 H   0  0  0  0  0  0  0  0  0  0  0  0
   -4.4664   -3.8876    7.6484 H   0  0  0  0  0  0  0  0  0  0  0  0
  1  2  2  0  0  0  0 
  1  3  1  0  0  0  0 
  1  4  1  0  0  0  0 
  3  5  1  0  0  0  0 
  3  6  1  0  0  0  0 
  4  7  2  0  0  0  0 
  4  8  1  0  0  0  0 
  5  9  1  0  0  0  0 
  5 10  2  0  0  0  0 
  6 11  1  0  0  0  0 
  6 12  2  0  0  0  0 
  7 13  1  0  0  0  0 
  8 14  2  0  0  0  0 
  9 12  1  0  0  0  0 
  9 15  2  0  0  0  0 
 10 16  1  0  0  0  0 
 12 17  1  0  0  0  0 
 13 18  2  0  0  0  0 
 14 18  1  0  0  0  0 
 15 19  1  0  0  0  0 
 16 19  2  0  0  0  0 
 17 20  1  0  0  0  0 
 18 21  1  0  0  0  0 
 19 22  1  0  0  0  0 
 20 23  1  0  0  0  0 
 20 24  2  0  0  0  0 
 22 25  1  0  0  0  0 
 23 26  1  0  0  0  0 
 26 27  1  0  0  0  0 
 27 28  1  0  0  0  0 
 27 29  2  0  0  0  0 
  7 30  1  0  0  0  0 
  8 31  1  0  0  0  0 
 10 32  1  0  0  0  0 
 11 33  1  0  0  0  0 
 11 34  1  0  0  0  0 
 11 35  1  0  0  0  0 
 13 36  1  0  0  0  0 
 14 37  1  0  0  0  0 
 15 38  1  0  0  0  0 
 16 39  1  0  0  0  0 
 17 40  1  0  0  0  0 
 17 41  1  0  0  0  0 
 25 42  1  0  0  0  0 
 25 43  1  0  0  0  0 
 25 44  1  0  0  0  0 
 26 45  1  0  0  0  0 
 26 46  1  0  0  0  0 
 28 47  1  0  0  0  0 
M  END
> <cdk:Title>
acemetacin

> <Conformer>
9

> <SuperDrugID>
SD000024

$$$$
acemetacin
  CDK     0628171802

 47 49  0  0  0  0  0  0  0  0999 V2000
    0.5815   -0.6048    0.1595 C   0  0  0  0  0  0  0  0  0  0  0  0
    0.9327   -0.0806    1.2426 O   0  0  0  0  0  0  0  0  0  0  0  0
   -0.4601   -0.0663   -0.5973 N   0  0  0  0  0  0  0  0  0  0  0  0
    1.3763   -1.7327   -0.1712 C   0  0  0  0  0  0  0  0  0  0  0  0
   -1.1026   -0.6364   -1.6585 C   0  0  0  0  0  0  0  0  0  0  0  0
   -1.0396    1.1612   -0.3968 C   0  0  0  0  0  0  0  0  0  0  0  0
    1.4402   -2.8413    0.7054 C   0  0  0  0  0  0  0  0  0  0  0  0
    2.1522   -1.7571   -1.3540 C   0  0  0  0  0  0  0  0  0  0  0  0
   -2.0555    0.2549   -2.1648 C   0  0  0  0  0  0  0  0  0  0  0  0
   -0.9874   -1.9136   -2.2554 C   0  0  0  0  0  0  0  0  0  0  0  0
   -0.6908    2.1333    0.6753 C   0  0  0  0  0  0  0  0  0  0  0  0
   -2.0236    1.3973   -1.3739 C   0  0  0  0  0  0  0  0  0  0  0  0
    2.2691   -3.9414    0.4159 C   0  0  0  0  0  0  0  0  0  0  0  0
    2.9703   -2.8645   -1.6523 C   0  0  0  0  0  0  0  0  0  0  0  0
   -2.8609   -0.0647   -3.2799 C   0  0  0  0  0  0  0  0  0  0  0  0
   -1.7743   -2.2447   -3.3754 C   0  0  0  0  0  0  0  0  0  0  0  0
   -2.8671    2.6118   -1.5366 C   0  0  1  0  0  0  0  0  0  0  0  0
    3.0383   -3.9554   -0.7636 C   0  0  0  0  0  0  0  0  0  0  0  0
   -2.7114   -1.3250   -3.8950 C   0  0  0  0  0  0  0  0  0  0  0  0
   -2.0621    3.7884   -1.9331 C   0  0  0  0  0  0  0  0  0  0  0  0
    4.0413   -5.2741   -1.1050 Cl  0  0  0  0  0  0  0  0  0  0  0  0
   -3.4477   -1.6319   -5.0098 O   0  0  0  0  0  0  0  0  0  0  0  0
   -1.9143    4.8765   -1.1235 O   0  0  0  0  0  0  0  0  0  0  0  0
   -1.3860    3.7558   -2.9865 O   0  0  0  0  0  0  0  0  0  0  0  0
   -4.6425   -2.3851   -4.7296 C   0  0  0  0  0  0  0  0  0  0  0  0
   -2.9643    5.7349   -0.6615 C   0  0  2  0  0  0  0  0  0  0  0  0
   -2.4710    6.5501    0.4574 C   0  0  0  0  0  0  0  0  0  0  0  0
   -3.0884    6.5098    1.6606 O   0  0  0  0  0  0  0  0  0  0  0  0
   -1.4758    7.2936    0.3095 O   0  0  0  0  0  0  0  0  0  0  0  0
    0.8836   -2.8533    1.5647 H   0  0  0  0  0  0  0  0  0  0  0  0
    2.1265   -0.9707   -2.0086 H   0  0  0  0  0  0  0  0  0  0  0  0
   -0.3558   -2.6195   -1.8899 H   0  0  0  0  0  0  0  0  0  0  0  0
    0.3403    2.4630    0.5434 H   0  0  0  0  0  0  0  0  0  0  0  0
   -0.8038    1.6651    1.6534 H   0  0  0  0  0  0  0  0  0  0  0  0
   -1.3251    3.0161    0.6761 H   0  0  0  0  0  0  0  0  0  0  0  0
    2.3104   -4.7263    1.0715 H   0  0  0  0  0  0  0  0  0  0  0  0
    3.5166   -2.8709   -2.5164 H   0  0  0  0  0  0  0  0  0  0  0  0
   -3.5459    0.5965   -3.6499 H   0  0  0  0  0  0  0  0  0  0  0  0
   -1.6656   -3.1607   -3.8175 H   0  0  0  0  0  0  0  0  0  0  0  0
   -3.6403    2.4605   -2.2889 H   0  0  0  0  0  0  0  0  0  0  0  0
   -3.3785    2.7980   -0.5913 H   0  0  0  0  0  0  0  0  0  0  0  0
   -5.1432   -2.5914   -5.6766 H   0  0  0  0  0  0  0  0  0  0  0  0
   -4.4096   -3.3412   -4.2548 H   0  0  0  0  0  0  0  0  0  0  0  0
   -5.3316   -1.8207   -4.0968 H   0  0  0  0  0  0  0  0  0  0  0  0
   -3.8291    5.1531   -0.3350 H   0  0  0  0  0  0  0  0  0  0  0  0
   -3.2797    6.3919   -1.4756 H   0  0  0  0  0  0  0  0  0  0  0  0
   -2.7682    7.0606    2.4044 H   0  0  0  0  0  0  0  0  0  0  0  0
  1  2  2  0  0  0  0 
  1  3  1  0  0  0  0 
  1  4  1  0  0  0  0 
  3  5  1  0  0  0  0 
  3  6  1  0  0  0  0 
  4  7  2  0  0  0  0 
  4  8  1  0  0  0  0 
  5  9  1  0  0  0  0 
  5 10  2  0  0  0  0 
  6 11  1  0  0  0  0 
  6 12  2  0  0  0  0 
  7 13  1  0  0  0  0 
  8 14  2  0  0  0  0 
  9 12  1  0  0  0  0 
  9 15  2  0  0  0  0 
 10 16  1  0  0  0  0 
 12 17  1  0  0  0  0 
 13 18  2  0  0  0  0 
 14 18  1  0  0  0  0 
 15 19  1  0  0  0  0 
 16 19  2  0  0  0  0 
 17 20  1  0  0  0  0 
 18 21  1  0  0  0  0 
 19 22  1  0  0  0  0 
 20 23  1  0  0  0  0 
 20 24  2  0  0  0  0 
 22 25  1  0  0  0  0 
 23 26  1  0  0  0  0 
 26 27  1  0  0  0  0 
 27 28  1  0  0  0  0 
 27 29  2  0  0  0  0 
  7 30  1  0  0  0  0 
  8 31  1  0  0  0  0 
 10 32  1  0  0  0  0 
 11 33  1  0  0  0  0 
 11 34  1  0  0  0  0 
 11 35  1  0  0  0  0 
 13 36  1  0  0  0  0 
 14 37  1  0  0  0  0 
 15 38  1  0  0  0  0 
 16 39  1  0  0  0  0 
 17 40  1  0  0  0  0 
 17 41  1  0  0  0  0 
 25 42  1  0  0  0  0 
 25 43  1  0  0  0  0 
 25 44  1  0  0  0  0 
 26 45  1  0  0  0  0 
 26 46  1  0  0  0  0 
 28 47  1  0  0  0  0 
M  END
> <cdk:Title>
acemetacin

> <Conformer>
10

> <SuperDrugID>
SD000024

$$$$
