azacitidine
  CDK     0628171801

 29 30  0  0  0  0  0  0  0  0999 V2000
    1.6548   -1.6199   -1.8078 O   0  0  0  0  0  0  0  0  0  0  0  0
    2.7480   -2.5015   -2.0819 C   0  0  1  0  0  0  0  0  0  0  0  0
    2.2839   -3.7189   -2.9260 C   0  0  1  0  0  0  0  0  0  0  0  0
    3.7742   -1.8278   -3.0003 C   0  0  2  0  0  0  0  0  0  0  0  0
    2.4901   -3.3566   -4.3067 O   0  0  0  0  0  0  0  0  0  0  0  0
    2.9329   -4.9705   -2.5534 N   0  0  0  0  0  0  0  0  0  0  0  0
    3.9436   -0.4382   -2.7250 O   0  0  0  0  0  0  0  0  0  0  0  0
    3.1702   -2.0955   -4.3940 C   0  0  2  0  0  0  0  0  0  0  0  0
    2.6431   -5.5886   -1.3580 C   0  0  0  0  0  0  0  0  0  0  0  0
    3.8389   -5.5947   -3.3762 C   0  0  0  0  0  0  0  0  0  0  0  0
    4.2143   -2.1249   -5.5350 C   0  0  2  0  0  0  0  0  0  0  0  0
    1.8289   -5.1205   -0.5288 O   0  0  0  0  0  0  0  0  0  0  0  0
    3.2232   -6.7666   -1.0194 N   0  0  0  0  0  0  0  0  0  0  0  0
    4.4133   -6.7712   -3.0308 N   0  0  0  0  0  0  0  0  0  0  0  0
    3.5997   -2.4907   -6.7665 O   0  0  0  0  0  0  0  0  0  0  0  0
    4.1046   -7.3618   -1.8548 C   0  0  0  0  0  0  0  0  0  0  0  0
    4.6555   -8.5399   -1.5329 N   0  0  0  0  0  0  0  0  0  0  0  0
    1.0238   -2.1480   -1.2753 H   0  0  0  0  0  0  0  0  0  0  0  0
    3.2097   -2.7946   -1.1354 H   0  0  0  0  0  0  0  0  0  0  0  0
    1.2035   -3.8608   -2.8148 H   0  0  0  0  0  0  0  0  0  0  0  0
    4.7412   -2.3295   -2.8883 H   0  0  0  0  0  0  0  0  0  0  0  0
    4.6406   -0.1402   -3.3464 H   0  0  0  0  0  0  0  0  0  0  0  0
    2.4230   -1.3276   -4.6232 H   0  0  0  0  0  0  0  0  0  0  0  0
    4.1079   -5.2024   -4.2796 H   0  0  0  0  0  0  0  0  0  0  0  0
    4.9999   -2.8508   -5.3133 H   0  0  0  0  0  0  0  0  0  0  0  0
    4.6682   -1.1383   -5.6499 H   0  0  0  0  0  0  0  0  0  0  0  0
    4.3401   -2.5484   -7.4070 H   0  0  0  0  0  0  0  0  0  0  0  0
    4.4343   -8.9679   -0.6913 H   0  0  0  0  0  0  0  0  0  0  0  0
    5.2681   -8.9735   -2.1483 H   0  0  0  0  0  0  0  0  0  0  0  0
  2  1  1  0  0  0  0 
  2  3  1  0  0  0  0 
  4  2  1  0  0  0  0 
  3  5  1  0  0  0  0 
  3  6  1  0  0  0  0 
  4  7  1  0  0  0  0 
  8  4  1  0  0  0  0 
  8  5  1  0  0  0  0 
  6  9  1  0  0  0  0 
  6 10  1  0  0  0  0 
  8 11  1  0  0  0  0 
  9 12  2  0  0  0  0 
  9 13  1  0  0  0  0 
 10 14  2  0  0  0  0 
 11 15  1  0  0  0  0 
 13 16  2  0  0  0  0 
 14 16  1  0  0  0  0 
 16 17  1  0  0  0  0 
  1 18  1  0  0  0  0 
  2 19  1  0  0  0  0 
  3 20  1  0  0  0  0 
  4 21  1  0  0  0  0 
  7 22  1  0  0  0  0 
  8 23  1  0  0  0  0 
 10 24  1  0  0  0  0 
 11 25  1  0  0  0  0 
 11 26  1  0  0  0  0 
 15 27  1  0  0  0  0 
 17 28  1  0  0  0  0 
 17 29  1  0  0  0  0 
M  END
> <cdk:Title>
azacitidine

> <Conformer>
1

> <SuperDrugID>
SD000008

$$$$
azacitidine
  CDK     0628171801

 29 30  0  0  0  0  0  0  0  0999 V2000
    1.6869   -1.6545   -1.7568 O   0  0  0  0  0  0  0  0  0  0  0  0
    2.7727   -2.5299   -2.0616 C   0  0  1  0  0  0  0  0  0  0  0  0
    2.2853   -3.7188   -2.9256 C   0  0  1  0  0  0  0  0  0  0  0  0
    3.8142   -1.8608   -2.9655 C   0  0  2  0  0  0  0  0  0  0  0  0
    2.4851   -3.3334   -4.3020 O   0  0  0  0  0  0  0  0  0  0  0  0
    2.9226   -4.9726   -2.5579 N   0  0  0  0  0  0  0  0  0  0  0  0
    3.9929   -0.4751   -2.6756 O   0  0  0  0  0  0  0  0  0  0  0  0
    3.2343   -2.1100   -4.3739 C   0  0  2  0  0  0  0  0  0  0  0  0
    2.6359   -5.5869   -1.3613 C   0  0  0  0  0  0  0  0  0  0  0  0
    3.8216   -5.5936   -3.3849 C   0  0  0  0  0  0  0  0  0  0  0  0
    4.2988   -2.2091   -5.4949 C   0  0  2  0  0  0  0  0  0  0  0  0
    1.8242   -5.1155   -0.5311 O   0  0  0  0  0  0  0  0  0  0  0  0
    3.2276   -6.7578   -1.0213 N   0  0  0  0  0  0  0  0  0  0  0  0
    4.4081   -6.7630   -3.0364 N   0  0  0  0  0  0  0  0  0  0  0  0
    4.9806   -0.9711   -5.6648 O   0  0  0  0  0  0  0  0  0  0  0  0
    4.1136   -7.3477   -1.8547 C   0  0  0  0  0  0  0  0  0  0  0  0
    4.6897   -8.5093   -1.5119 N   0  0  0  0  0  0  0  0  0  0  0  0
    1.0848   -2.1942   -1.2002 H   0  0  0  0  0  0  0  0  0  0  0  0
    3.2310   -2.8438   -1.1207 H   0  0  0  0  0  0  0  0  0  0  0  0
    1.2052   -3.8499   -2.8068 H   0  0  0  0  0  0  0  0  0  0  0  0
    4.7759   -2.3707   -2.8438 H   0  0  0  0  0  0  0  0  0  0  0  0
    4.6626   -0.1605   -3.3203 H   0  0  0  0  0  0  0  0  0  0  0  0
    2.5331   -1.3078   -4.6261 H   0  0  0  0  0  0  0  0  0  0  0  0
    4.0813   -5.1997   -4.2898 H   0  0  0  0  0  0  0  0  0  0  0  0
    3.8153   -2.4689   -6.4393 H   0  0  0  0  0  0  0  0  0  0  0  0
    5.0316   -2.9848   -5.2570 H   0  0  0  0  0  0  0  0  0  0  0  0
    5.6203   -1.1304   -6.3922 H   0  0  0  0  0  0  0  0  0  0  0  0
    4.4635   -8.9333   -0.6692 H   0  0  0  0  0  0  0  0  0  0  0  0
    5.3314   -8.9289   -2.1061 H   0  0  0  0  0  0  0  0  0  0  0  0
  2  1  1  0  0  0  0 
  2  3  1  0  0  0  0 
  4  2  1  0  0  0  0 
  3  5  1  0  0  0  0 
  3  6  1  0  0  0  0 
  4  7  1  0  0  0  0 
  8  4  1  0  0  0  0 
  8  5  1  0  0  0  0 
  6  9  1  0  0  0  0 
  6 10  1  0  0  0  0 
  8 11  1  0  0  0  0 
  9 12  2  0  0  0  0 
  9 13  1  0  0  0  0 
 10 14  2  0  0  0  0 
 11 15  1  0  0  0  0 
 13 16  2  0  0  0  0 
 14 16  1  0  0  0  0 
 16 17  1  0  0  0  0 
  1 18  1  0  0  0  0 
  2 19  1  0  0  0  0 
  3 20  1  0  0  0  0 
  4 21  1  0  0  0  0 
  7 22  1  0  0  0  0 
  8 23  1  0  0  0  0 
 10 24  1  0  0  0  0 
 11 25  1  0  0  0  0 
 11 26  1  0  0  0  0 
 15 27  1  0  0  0  0 
 17 28  1  0  0  0  0 
 17 29  1  0  0  0  0 
M  END
> <cdk:Title>
azacitidine

> <Conformer>
2

> <SuperDrugID>
SD000008

$$$$
azacitidine
  CDK     0628171801

 29 30  0  0  0  0  0  0  0  0999 V2000
    1.7042   -1.6191   -1.7925 O   0  0  0  0  0  0  0  0  0  0  0  0
    2.7774   -2.5138   -2.0850 C   0  0  1  0  0  0  0  0  0  0  0  0
    2.2756   -3.7194   -2.9222 C   0  0  1  0  0  0  0  0  0  0  0  0
    3.8142   -1.8768   -3.0158 C   0  0  2  0  0  0  0  0  0  0  0  0
    2.4574   -3.3586   -4.3092 O   0  0  0  0  0  0  0  0  0  0  0  0
    2.9188   -4.9717   -2.5531 N   0  0  0  0  0  0  0  0  0  0  0  0
    4.0306   -0.4927   -2.7502 O   0  0  0  0  0  0  0  0  0  0  0  0
    3.1993   -2.1340   -4.4089 C   0  0  2  0  0  0  0  0  0  0  0  0
    2.6369   -5.5899   -1.3557 C   0  0  0  0  0  0  0  0  0  0  0  0
    3.8224   -5.5902   -3.3817 C   0  0  0  0  0  0  0  0  0  0  0  0
    4.2480   -2.2075   -5.5482 C   0  0  2  0  0  0  0  0  0  0  0  0
    1.8299   -5.1196   -0.5201 O   0  0  0  0  0  0  0  0  0  0  0  0
    3.2304   -6.7641   -1.0198 N   0  0  0  0  0  0  0  0  0  0  0  0
    4.4073   -6.7620   -3.0393 N   0  0  0  0  0  0  0  0  0  0  0  0
    3.6581   -2.6562   -6.7647 O   0  0  0  0  0  0  0  0  0  0  0  0
    4.1122   -7.3543   -1.8607 C   0  0  0  0  0  0  0  0  0  0  0  0
    4.6880   -8.5257   -1.5470 N   0  0  0  0  0  0  0  0  0  0  0  0
    1.1045   -2.1326   -1.2101 H   0  0  0  0  0  0  0  0  0  0  0  0
    3.2396   -2.8149   -1.1414 H   0  0  0  0  0  0  0  0  0  0  0  0
    1.1961   -3.8443   -2.7868 H   0  0  0  0  0  0  0  0  0  0  0  0
    4.7661   -2.4068   -2.9028 H   0  0  0  0  0  0  0  0  0  0  0  0
    4.7294   -0.2187   -3.3820 H   0  0  0  0  0  0  0  0  0  0  0  0
    2.4838   -1.3386   -4.6446 H   0  0  0  0  0  0  0  0  0  0  0  0
    4.0862   -5.1934   -4.2844 H   0  0  0  0  0  0  0  0  0  0  0  0
    5.0560   -2.8950   -5.2893 H   0  0  0  0  0  0  0  0  0  0  0  0
    4.6770   -1.2180   -5.7188 H   0  0  0  0  0  0  0  0  0  0  0  0
    3.3807   -3.5803   -6.5869 H   0  0  0  0  0  0  0  0  0  0  0  0
    5.2944   -8.9497   -2.1770 H   0  0  0  0  0  0  0  0  0  0  0  0
    4.4920   -8.9537   -0.6987 H   0  0  0  0  0  0  0  0  0  0  0  0
  2  1  1  0  0  0  0 
  2  3  1  0  0  0  0 
  4  2  1  0  0  0  0 
  3  5  1  0  0  0  0 
  3  6  1  0  0  0  0 
  4  7  1  0  0  0  0 
  8  4  1  0  0  0  0 
  8  5  1  0  0  0  0 
  6  9  1  0  0  0  0 
  6 10  1  0  0  0  0 
  8 11  1  0  0  0  0 
  9 12  2  0  0  0  0 
  9 13  1  0  0  0  0 
 10 14  2  0  0  0  0 
 11 15  1  0  0  0  0 
 13 16  2  0  0  0  0 
 14 16  1  0  0  0  0 
 16 17  1  0  0  0  0 
  1 18  1  0  0  0  0 
  2 19  1  0  0  0  0 
  3 20  1  0  0  0  0 
  4 21  1  0  0  0  0 
  7 22  1  0  0  0  0 
  8 23  1  0  0  0  0 
 10 24  1  0  0  0  0 
 11 25  1  0  0  0  0 
 11 26  1  0  0  0  0 
 15 27  1  0  0  0  0 
 17 28  1  0  0  0  0 
 17 29  1  0  0  0  0 
M  END
> <cdk:Title>
azacitidine

> <Conformer>
3

> <SuperDrugID>
SD000008

$$$$
azacitidine
  CDK     0628171801

 29 30  0  0  0  0  0  0  0  0999 V2000
    2.5286   -1.6522   -3.9021 O   0  0  0  0  0  0  0  0  0  0  0  0
    2.0710   -2.9006   -3.3766 C   0  0  1  0  0  0  0  0  0  0  0  0
    2.9739   -3.3804   -2.2075 C   0  0  1  0  0  0  0  0  0  0  0  0
    0.7042   -2.7342   -2.7048 C   0  0  2  0  0  0  0  0  0  0  0  0
    2.3717   -2.8699   -1.0011 O   0  0  0  0  0  0  0  0  0  0  0  0
    3.2197   -4.8209   -2.1981 N   0  0  0  0  0  0  0  0  0  0  0  0
   -0.1489   -1.8170   -3.3895 O   0  0  0  0  0  0  0  0  0  0  0  0
    1.1103   -2.2511   -1.2962 C   0  0  2  0  0  0  0  0  0  0  0  0
    2.8027   -5.6778   -1.2031 C   0  0  0  0  0  0  0  0  0  0  0  0
    3.9408   -5.3723   -3.2292 C   0  0  0  0  0  0  0  0  0  0  0  0
    0.0726   -2.5799   -0.1975 C   0  0  2  0  0  0  0  0  0  0  0  0
    2.1465   -5.3220   -0.1973 O   0  0  0  0  0  0  0  0  0  0  0  0
    3.0966   -7.0002   -1.2498 N   0  0  0  0  0  0  0  0  0  0  0  0
    4.2306   -6.6955   -3.2687 N   0  0  0  0  0  0  0  0  0  0  0  0
    0.5420   -2.1663    1.0812 O   0  0  0  0  0  0  0  0  0  0  0  0
    3.8136   -7.5129   -2.2751 C   0  0  0  0  0  0  0  0  0  0  0  0
    4.1144   -8.8201   -2.2977 N   0  0  0  0  0  0  0  0  0  0  0  0
    3.4266   -1.8311   -4.2499 H   0  0  0  0  0  0  0  0  0  0  0  0
    2.0138   -3.6203   -4.1965 H   0  0  0  0  0  0  0  0  0  0  0  0
    3.9474   -2.8850   -2.2780 H   0  0  0  0  0  0  0  0  0  0  0  0
    0.2100   -3.7102   -2.6583 H   0  0  0  0  0  0  0  0  0  0  0  0
   -0.9866   -1.8218   -2.8814 H   0  0  0  0  0  0  0  0  0  0  0  0
    1.2685   -1.1678   -1.3101 H   0  0  0  0  0  0  0  0  0  0  0  0
    4.2889   -4.7946   -3.9973 H   0  0  0  0  0  0  0  0  0  0  0  0
   -0.1132   -3.6554   -0.1647 H   0  0  0  0  0  0  0  0  0  0  0  0
   -0.8682   -2.0646   -0.4040 H   0  0  0  0  0  0  0  0  0  0  0  0
   -0.1627   -2.4447    1.7039 H   0  0  0  0  0  0  0  0  0  0  0  0
    4.6045   -9.1917   -3.0468 H   0  0  0  0  0  0  0  0  0  0  0  0
    3.8452   -9.3956   -1.5642 H   0  0  0  0  0  0  0  0  0  0  0  0
  2  1  1  0  0  0  0 
  2  3  1  0  0  0  0 
  4  2  1  0  0  0  0 
  3  5  1  0  0  0  0 
  3  6  1  0  0  0  0 
  4  7  1  0  0  0  0 
  8  4  1  0  0  0  0 
  8  5  1  0  0  0  0 
  6  9  1  0  0  0  0 
  6 10  1  0  0  0  0 
  8 11  1  0  0  0  0 
  9 12  2  0  0  0  0 
  9 13  1  0  0  0  0 
 10 14  2  0  0  0  0 
 11 15  1  0  0  0  0 
 13 16  2  0  0  0  0 
 14 16  1  0  0  0  0 
 16 17  1  0  0  0  0 
  1 18  1  0  0  0  0 
  2 19  1  0  0  0  0 
  3 20  1  0  0  0  0 
  4 21  1  0  0  0  0 
  7 22  1  0  0  0  0 
  8 23  1  0  0  0  0 
 10 24  1  0  0  0  0 
 11 25  1  0  0  0  0 
 11 26  1  0  0  0  0 
 15 27  1  0  0  0  0 
 17 28  1  0  0  0  0 
 17 29  1  0  0  0  0 
M  END
> <cdk:Title>
azacitidine

> <Conformer>
4

> <SuperDrugID>
SD000008

$$$$
azacitidine
  CDK     0628171801

 29 30  0  0  0  0  0  0  0  0999 V2000
    1.5209   -1.6713   -1.8745 O   0  0  0  0  0  0  0  0  0  0  0  0
    2.6645   -2.5157   -2.0055 C   0  0  1  0  0  0  0  0  0  0  0  0
    2.3528   -3.7049   -2.9543 C   0  0  1  0  0  0  0  0  0  0  0  0
    3.8175   -1.7975   -2.7126 C   0  0  2  0  0  0  0  0  0  0  0  0
    2.7242   -3.2561   -4.2757 O   0  0  0  0  0  0  0  0  0  0  0  0
    2.9680   -4.9672   -2.5637 N   0  0  0  0  0  0  0  0  0  0  0  0
    3.8981   -0.4147   -2.3658 O   0  0  0  0  0  0  0  0  0  0  0  0
    3.4856   -2.0408   -4.1998 C   0  0  2  0  0  0  0  0  0  0  0  0
    2.6416   -5.5818   -1.3770 C   0  0  0  0  0  0  0  0  0  0  0  0
    3.8643   -5.6164   -3.3745 C   0  0  0  0  0  0  0  0  0  0  0  0
    4.7188   -2.0907   -5.1376 C   0  0  2  0  0  0  0  0  0  0  0  0
    1.7986   -5.1121   -0.5774 O   0  0  0  0  0  0  0  0  0  0  0  0
    3.2119   -6.7570   -1.0158 N   0  0  0  0  0  0  0  0  0  0  0  0
    4.4219   -6.7962   -3.0126 N   0  0  0  0  0  0  0  0  0  0  0  0
    5.6535   -3.0978   -4.7634 O   0  0  0  0  0  0  0  0  0  0  0  0
    4.1019   -7.3678   -1.8302 C   0  0  0  0  0  0  0  0  0  0  0  0
    4.6620   -8.5345   -1.4748 N   0  0  0  0  0  0  0  0  0  0  0  0
    0.8474   -2.2296   -1.4306 H   0  0  0  0  0  0  0  0  0  0  0  0
    2.9699   -2.8239   -1.0039 H   0  0  0  0  0  0  0  0  0  0  0  0
    1.2719   -3.8767   -2.9879 H   0  0  0  0  0  0  0  0  0  0  0  0
    4.7569   -2.2792   -2.4327 H   0  0  0  0  0  0  0  0  0  0  0  0
    4.7025   -0.0781   -2.8138 H   0  0  0  0  0  0  0  0  0  0  0  0
    2.8286   -1.2388   -4.5555 H   0  0  0  0  0  0  0  0  0  0  0  0
    4.1364   -5.2405   -4.2815 H   0  0  0  0  0  0  0  0  0  0  0  0
    5.2354   -1.1299   -5.1176 H   0  0  0  0  0  0  0  0  0  0  0  0
    4.3909   -2.2844   -6.1619 H   0  0  0  0  0  0  0  0  0  0  0  0
    6.3931   -3.0047   -5.4019 H   0  0  0  0  0  0  0  0  0  0  0  0
    5.2759   -8.9805   -2.0812 H   0  0  0  0  0  0  0  0  0  0  0  0
    4.4503   -8.9350   -0.6149 H   0  0  0  0  0  0  0  0  0  0  0  0
  2  1  1  0  0  0  0 
  2  3  1  0  0  0  0 
  4  2  1  0  0  0  0 
  3  5  1  0  0  0  0 
  3  6  1  0  0  0  0 
  4  7  1  0  0  0  0 
  8  4  1  0  0  0  0 
  8  5  1  0  0  0  0 
  6  9  1  0  0  0  0 
  6 10  1  0  0  0  0 
  8 11  1  0  0  0  0 
  9 12  2  0  0  0  0 
  9 13  1  0  0  0  0 
 10 14  2  0  0  0  0 
 11 15  1  0  0  0  0 
 13 16  2  0  0  0  0 
 14 16  1  0  0  0  0 
 16 17  1  0  0  0  0 
  1 18  1  0  0  0  0 
  2 19  1  0  0  0  0 
  3 20  1  0  0  0  0 
  4 21  1  0  0  0  0 
  7 22  1  0  0  0  0 
  8 23  1  0  0  0  0 
 10 24  1  0  0  0  0 
 11 25  1  0  0  0  0 
 11 26  1  0  0  0  0 
 15 27  1  0  0  0  0 
 17 28  1  0  0  0  0 
 17 29  1  0  0  0  0 
M  END
> <cdk:Title>
azacitidine

> <Conformer>
5

> <SuperDrugID>
SD000008

$$$$
azacitidine
  CDK     0628171801

 29 30  0  0  0  0  0  0  0  0999 V2000
    2.4564   -1.5264   -3.7532 O   0  0  0  0  0  0  0  0  0  0  0  0
    2.0472   -2.8307   -3.3385 C   0  0  1  0  0  0  0  0  0  0  0  0
    2.9333   -3.3339   -2.1666 C   0  0  1  0  0  0  0  0  0  0  0  0
    0.6484   -2.8073   -2.7171 C   0  0  2  0  0  0  0  0  0  0  0  0
    2.2710   -2.9061   -0.9590 O   0  0  0  0  0  0  0  0  0  0  0  0
    3.2323   -4.7617   -2.2277 N   0  0  0  0  0  0  0  0  0  0  0  0
   -0.2383   -1.9025   -3.3721 O   0  0  0  0  0  0  0  0  0  0  0  0
    0.9507   -2.4217   -1.2554 C   0  0  2  0  0  0  0  0  0  0  0  0
    2.8073   -5.6872   -1.3012 C   0  0  0  0  0  0  0  0  0  0  0  0
    4.0161   -5.2267   -3.2556 C   0  0  0  0  0  0  0  0  0  0  0  0
   -0.0827   -2.9814   -0.2492 C   0  0  2  0  0  0  0  0  0  0  0  0
    2.0891   -5.4201   -0.3124 O   0  0  0  0  0  0  0  0  0  0  0  0
    3.1511   -6.9926   -1.4103 N   0  0  0  0  0  0  0  0  0  0  0  0
    4.3505   -6.5366   -3.3624 N   0  0  0  0  0  0  0  0  0  0  0  0
    0.3435   -2.7442    1.0873 O   0  0  0  0  0  0  0  0  0  0  0  0
    3.9157   -7.4232   -2.4370 C   0  0  0  0  0  0  0  0  0  0  0  0
    4.2201   -8.7255   -2.5223 N   0  0  0  0  0  0  0  0  0  0  0  0
    3.3703   -1.6480   -4.0898 H   0  0  0  0  0  0  0  0  0  0  0  0
    2.0675   -3.4885   -4.2124 H   0  0  0  0  0  0  0  0  0  0  0  0
    3.8937   -2.8047   -2.1794 H   0  0  0  0  0  0  0  0  0  0  0  0
    0.2233   -3.8136   -2.7719 H   0  0  0  0  0  0  0  0  0  0  0  0
   -1.0966   -2.0142   -2.9120 H   0  0  0  0  0  0  0  0  0  0  0  0
    0.9743   -1.3315   -1.1608 H   0  0  0  0  0  0  0  0  0  0  0  0
    4.3683   -4.5903   -3.9752 H   0  0  0  0  0  0  0  0  0  0  0  0
   -0.2047   -4.0564   -0.3882 H   0  0  0  0  0  0  0  0  0  0  0  0
   -1.0505   -2.5012   -0.4029 H   0  0  0  0  0  0  0  0  0  0  0  0
   -0.3400   -3.1675    1.6478 H   0  0  0  0  0  0  0  0  0  0  0  0
    3.9451   -9.3300   -1.8144 H   0  0  0  0  0  0  0  0  0  0  0  0
    4.7141   -9.0643   -3.2847 H   0  0  0  0  0  0  0  0  0  0  0  0
  2  1  1  0  0  0  0 
  2  3  1  0  0  0  0 
  4  2  1  0  0  0  0 
  3  5  1  0  0  0  0 
  3  6  1  0  0  0  0 
  4  7  1  0  0  0  0 
  8  4  1  0  0  0  0 
  8  5  1  0  0  0  0 
  6  9  1  0  0  0  0 
  6 10  1  0  0  0  0 
  8 11  1  0  0  0  0 
  9 12  2  0  0  0  0 
  9 13  1  0  0  0  0 
 10 14  2  0  0  0  0 
 11 15  1  0  0  0  0 
 13 16  2  0  0  0  0 
 14 16  1  0  0  0  0 
 16 17  1  0  0  0  0 
  1 18  1  0  0  0  0 
  2 19  1  0  0  0  0 
  3 20  1  0  0  0  0 
  4 21  1  0  0  0  0 
  7 22  1  0  0  0  0 
  8 23  1  0  0  0  0 
 10 24  1  0  0  0  0 
 11 25  1  0  0  0  0 
 11 26  1  0  0  0  0 
 15 27  1  0  0  0  0 
 17 28  1  0  0  0  0 
 17 29  1  0  0  0  0 
M  END
> <cdk:Title>
azacitidine

> <Conformer>
6

> <SuperDrugID>
SD000008

$$$$
azacitidine
  CDK     0628171801

 29 30  0  0  0  0  0  0  0  0999 V2000
    2.5503   -1.6639   -3.9121 O   0  0  0  0  0  0  0  0  0  0  0  0
    2.0568   -2.8854   -3.3630 C   0  0  1  0  0  0  0  0  0  0  0  0
    2.9337   -3.3363   -2.1668 C   0  0  1  0  0  0  0  0  0  0  0  0
    0.6739   -2.7129   -2.7234 C   0  0  2  0  0  0  0  0  0  0  0  0
    2.2983   -2.8295   -0.9763 O   0  0  0  0  0  0  0  0  0  0  0  0
    3.1855   -4.7696   -2.1534 N   0  0  0  0  0  0  0  0  0  0  0  0
   -0.1516   -1.7843   -3.4249 O   0  0  0  0  0  0  0  0  0  0  0  0
    1.0266   -2.2452   -1.2959 C   0  0  2  0  0  0  0  0  0  0  0  0
    2.7022   -5.6289   -1.1938 C   0  0  0  0  0  0  0  0  0  0  0  0
    3.9668   -5.3113   -3.1451 C   0  0  0  0  0  0  0  0  0  0  0  0
   -0.0394   -2.6119   -0.2310 C   0  0  2  0  0  0  0  0  0  0  0  0
    1.9621   -5.2888   -0.2432 O   0  0  0  0  0  0  0  0  0  0  0  0
    3.0102   -6.9467   -1.2262 N   0  0  0  0  0  0  0  0  0  0  0  0
    4.2613   -6.6341   -3.1702 N   0  0  0  0  0  0  0  0  0  0  0  0
    0.4560   -2.3949    1.0845 O   0  0  0  0  0  0  0  0  0  0  0  0
    3.7863   -7.4560   -2.2070 C   0  0  0  0  0  0  0  0  0  0  0  0
    4.0757   -8.7661   -2.2143 N   0  0  0  0  0  0  0  0  0  0  0  0
    3.4236   -1.9047   -4.2892 H   0  0  0  0  0  0  0  0  0  0  0  0
    2.0167   -3.6269   -4.1663 H   0  0  0  0  0  0  0  0  0  0  0  0
    3.9067   -2.8359   -2.2111 H   0  0  0  0  0  0  0  0  0  0  0  0
    0.1700   -3.6857   -2.7064 H   0  0  0  0  0  0  0  0  0  0  0  0
   -0.9946   -1.7621   -2.9245 H   0  0  0  0  0  0  0  0  0  0  0  0
    1.1594   -1.1579   -1.2881 H   0  0  0  0  0  0  0  0  0  0  0  0
    4.3482   -4.7300   -3.8975 H   0  0  0  0  0  0  0  0  0  0  0  0
   -0.3234   -3.6618   -0.3099 H   0  0  0  0  0  0  0  0  0  0  0  0
   -0.9328   -1.9986   -0.3653 H   0  0  0  0  0  0  0  0  0  0  0  0
    1.1811   -3.0472    1.1912 H   0  0  0  0  0  0  0  0  0  0  0  0
    4.6024   -9.1459   -2.9346 H   0  0  0  0  0  0  0  0  0  0  0  0
    3.7523   -9.3338   -1.4967 H   0  0  0  0  0  0  0  0  0  0  0  0
  2  1  1  0  0  0  0 
  2  3  1  0  0  0  0 
  4  2  1  0  0  0  0 
  3  5  1  0  0  0  0 
  3  6  1  0  0  0  0 
  4  7  1  0  0  0  0 
  8  4  1  0  0  0  0 
  8  5  1  0  0  0  0 
  6  9  1  0  0  0  0 
  6 10  1  0  0  0  0 
  8 11  1  0  0  0  0 
  9 12  2  0  0  0  0 
  9 13  1  0  0  0  0 
 10 14  2  0  0  0  0 
 11 15  1  0  0  0  0 
 13 16  2  0  0  0  0 
 14 16  1  0  0  0  0 
 16 17  1  0  0  0  0 
  1 18  1  0  0  0  0 
  2 19  1  0  0  0  0 
  3 20  1  0  0  0  0 
  4 21  1  0  0  0  0 
  7 22  1  0  0  0  0 
  8 23  1  0  0  0  0 
 10 24  1  0  0  0  0 
 11 25  1  0  0  0  0 
 11 26  1  0  0  0  0 
 15 27  1  0  0  0  0 
 17 28  1  0  0  0  0 
 17 29  1  0  0  0  0 
M  END
> <cdk:Title>
azacitidine

> <Conformer>
7

> <SuperDrugID>
SD000008

$$$$
azacitidine
  CDK     0628171801

 29 30  0  0  0  0  0  0  0  0999 V2000
    2.5147   -1.6573   -3.8802 O   0  0  0  0  0  0  0  0  0  0  0  0
    2.0617   -2.8864   -3.3069 C   0  0  1  0  0  0  0  0  0  0  0  0
    3.0269   -3.3496   -2.1817 C   0  0  1  0  0  0  0  0  0  0  0  0
    0.7300   -2.7024   -2.5720 C   0  0  2  0  0  0  0  0  0  0  0  0
    2.4986   -2.8051   -0.9574 O   0  0  0  0  0  0  0  0  0  0  0  0
    3.2686   -4.7882   -2.1546 N   0  0  0  0  0  0  0  0  0  0  0  0
   -0.1166   -1.7452   -3.2082 O   0  0  0  0  0  0  0  0  0  0  0  0
    1.1838   -2.2669   -1.1652 C   0  0  2  0  0  0  0  0  0  0  0  0
    2.9450   -5.6161   -1.1034 C   0  0  0  0  0  0  0  0  0  0  0  0
    3.8950   -5.3689   -3.2296 C   0  0  0  0  0  0  0  0  0  0  0  0
    0.2335   -2.7204   -0.0288 C   0  0  2  0  0  0  0  0  0  0  0  0
    2.3929   -5.2299   -0.0499 O   0  0  0  0  0  0  0  0  0  0  0  0
    3.2161   -6.9426   -1.1460 N   0  0  0  0  0  0  0  0  0  0  0  0
    4.1576   -6.6986   -3.2715 N   0  0  0  0  0  0  0  0  0  0  0  0
   -1.0369   -2.0855   -0.1217 O   0  0  0  0  0  0  0  0  0  0  0  0
    3.8098   -7.4875   -2.2300 C   0  0  0  0  0  0  0  0  0  0  0  0
    4.0438   -8.8071   -2.2572 N   0  0  0  0  0  0  0  0  0  0  0  0
    3.3685   -1.8808   -4.3085 H   0  0  0  0  0  0  0  0  0  0  0  0
    1.9490   -3.6192   -4.1108 H   0  0  0  0  0  0  0  0  0  0  0  0
    4.0014   -2.8688   -2.3160 H   0  0  0  0  0  0  0  0  0  0  0  0
    0.2059   -3.6612   -2.5277 H   0  0  0  0  0  0  0  0  0  0  0  0
   -0.9197   -1.7039   -2.6494 H   0  0  0  0  0  0  0  0  0  0  0  0
    1.2791   -1.1765   -1.1335 H   0  0  0  0  0  0  0  0  0  0  0  0
    4.1880   -4.8066   -4.0308 H   0  0  0  0  0  0  0  0  0  0  0  0
    0.6782   -2.4672    0.9336 H   0  0  0  0  0  0  0  0  0  0  0  0
    0.0826   -3.8006   -0.0624 H   0  0  0  0  0  0  0  0  0  0  0  0
   -1.5471   -2.4460    0.6353 H   0  0  0  0  0  0  0  0  0  0  0  0
    4.4363   -9.2178   -3.0437 H   0  0  0  0  0  0  0  0  0  0  0  0
    3.8064   -9.3558   -1.4917 H   0  0  0  0  0  0  0  0  0  0  0  0
  2  1  1  0  0  0  0 
  2  3  1  0  0  0  0 
  4  2  1  0  0  0  0 
  3  5  1  0  0  0  0 
  3  6  1  0  0  0  0 
  4  7  1  0  0  0  0 
  8  4  1  0  0  0  0 
  8  5  1  0  0  0  0 
  6  9  1  0  0  0  0 
  6 10  1  0  0  0  0 
  8 11  1  0  0  0  0 
  9 12  2  0  0  0  0 
  9 13  1  0  0  0  0 
 10 14  2  0  0  0  0 
 11 15  1  0  0  0  0 
 13 16  2  0  0  0  0 
 14 16  1  0  0  0  0 
 16 17  1  0  0  0  0 
  1 18  1  0  0  0  0 
  2 19  1  0  0  0  0 
  3 20  1  0  0  0  0 
  4 21  1  0  0  0  0 
  7 22  1  0  0  0  0 
  8 23  1  0  0  0  0 
 10 24  1  0  0  0  0 
 11 25  1  0  0  0  0 
 11 26  1  0  0  0  0 
 15 27  1  0  0  0  0 
 17 28  1  0  0  0  0 
 17 29  1  0  0  0  0 
M  END
> <cdk:Title>
azacitidine

> <Conformer>
8

> <SuperDrugID>
SD000008

$$$$
azacitidine
  CDK     0628171801

 29 30  0  0  0  0  0  0  0  0999 V2000
    2.7737   -1.5285   -3.8017 O   0  0  0  0  0  0  0  0  0  0  0  0
    2.2144   -2.7881   -3.4246 C   0  0  1  0  0  0  0  0  0  0  0  0
    2.9106   -3.3347   -2.1440 C   0  0  1  0  0  0  0  0  0  0  0  0
    0.7565   -2.6267   -2.9899 C   0  0  2  0  0  0  0  0  0  0  0  0
    2.1063   -2.8732   -1.0387 O   0  0  0  0  0  0  0  0  0  0  0  0
    3.1622   -4.7738   -2.1475 N   0  0  0  0  0  0  0  0  0  0  0  0
    0.0493   -1.6593   -3.7630 O   0  0  0  0  0  0  0  0  0  0  0  0
    0.9188   -2.2201   -1.5129 C   0  0  2  0  0  0  0  0  0  0  0  0
    2.7373   -5.6374   -1.1605 C   0  0  0  0  0  0  0  0  0  0  0  0
    3.9168   -5.3169   -3.1598 C   0  0  0  0  0  0  0  0  0  0  0  0
   -0.3095   -2.5631   -0.6318 C   0  0  2  0  0  0  0  0  0  0  0  0
    2.0992   -5.2984   -0.1389 O   0  0  0  0  0  0  0  0  0  0  0  0
    3.0203   -6.9597   -1.2179 N   0  0  0  0  0  0  0  0  0  0  0  0
    4.1851   -6.6457   -3.2164 N   0  0  0  0  0  0  0  0  0  0  0  0
   -0.6708   -3.9407   -0.7008 O   0  0  0  0  0  0  0  0  0  0  0  0
    3.7347   -7.4704   -2.2428 C   0  0  0  0  0  0  0  0  0  0  0  0
    3.9892   -8.7882   -2.2760 N   0  0  0  0  0  0  0  0  0  0  0  0
    3.7039   -1.7248   -4.0415 H   0  0  0  0  0  0  0  0  0  0  0  0
    2.2752   -3.4622   -4.2831 H   0  0  0  0  0  0  0  0  0  0  0  0
    3.8837   -2.8465   -2.0259 H   0  0  0  0  0  0  0  0  0  0  0  0
    0.2470   -3.5910   -3.0804 H   0  0  0  0  0  0  0  0  0  0  0  0
   -0.8657   -1.6795   -3.4139 H   0  0  0  0  0  0  0  0  0  0  0  0
    1.0967   -1.1400   -1.4451 H   0  0  0  0  0  0  0  0  0  0  0  0
    4.3064   -4.7283   -3.9012 H   0  0  0  0  0  0  0  0  0  0  0  0
   -1.1696   -1.9714   -0.9509 H   0  0  0  0  0  0  0  0  0  0  0  0
   -0.0947   -2.3164    0.4096 H   0  0  0  0  0  0  0  0  0  0  0  0
    0.1133   -4.4301   -0.3820 H   0  0  0  0  0  0  0  0  0  0  0  0
    4.4397   -9.1801   -3.0388 H   0  0  0  0  0  0  0  0  0  0  0  0
    3.7151   -9.3537   -1.5362 H   0  0  0  0  0  0  0  0  0  0  0  0
  2  1  1  0  0  0  0 
  2  3  1  0  0  0  0 
  4  2  1  0  0  0  0 
  3  5  1  0  0  0  0 
  3  6  1  0  0  0  0 
  4  7  1  0  0  0  0 
  8  4  1  0  0  0  0 
  8  5  1  0  0  0  0 
  6  9  1  0  0  0  0 
  6 10  1  0  0  0  0 
  8 11  1  0  0  0  0 
  9 12  2  0  0  0  0 
  9 13  1  0  0  0  0 
 10 14  2  0  0  0  0 
 11 15  1  0  0  0  0 
 13 16  2  0  0  0  0 
 14 16  1  0  0  0  0 
 16 17  1  0  0  0  0 
  1 18  1  0  0  0  0 
  2 19  1  0  0  0  0 
  3 20  1  0  0  0  0 
  4 21  1  0  0  0  0 
  7 22  1  0  0  0  0 
  8 23  1  0  0  0  0 
 10 24  1  0  0  0  0 
 11 25  1  0  0  0  0 
 11 26  1  0  0  0  0 
 15 27  1  0  0  0  0 
 17 28  1  0  0  0  0 
 17 29  1  0  0  0  0 
M  END
> <cdk:Title>
azacitidine

> <Conformer>
9

> <SuperDrugID>
SD000008

$$$$
azacitidine
  CDK     0628171801

 29 30  0  0  0  0  0  0  0  0999 V2000
    2.6887   -1.4693   -3.7420 O   0  0  0  0  0  0  0  0  0  0  0  0
    2.2093   -2.7792   -3.4154 C   0  0  1  0  0  0  0  0  0  0  0  0
    2.9146   -3.3325   -2.1432 C   0  0  1  0  0  0  0  0  0  0  0  0
    0.7403   -2.7193   -2.9840 C   0  0  2  0  0  0  0  0  0  0  0  0
    2.1061   -2.8736   -1.0343 O   0  0  0  0  0  0  0  0  0  0  0  0
    3.1637   -4.7758   -2.1510 N   0  0  0  0  0  0  0  0  0  0  0  0
   -0.0277   -1.7991   -3.7588 O   0  0  0  0  0  0  0  0  0  0  0  0
    0.8853   -2.2853   -1.5134 C   0  0  2  0  0  0  0  0  0  0  0  0
    2.7367   -5.6385   -1.1656 C   0  0  0  0  0  0  0  0  0  0  0  0
    3.9103   -5.3253   -3.1658 C   0  0  0  0  0  0  0  0  0  0  0  0
   -0.3337   -2.6232   -0.6213 C   0  0  2  0  0  0  0  0  0  0  0  0
    2.0941   -5.2896   -0.1506 O   0  0  0  0  0  0  0  0  0  0  0  0
    3.0215   -6.9627   -1.2151 N   0  0  0  0  0  0  0  0  0  0  0  0
    4.1879   -6.6527   -3.2118 N   0  0  0  0  0  0  0  0  0  0  0  0
   -0.5890   -4.0201   -0.5392 O   0  0  0  0  0  0  0  0  0  0  0  0
    3.7455   -7.4752   -2.2337 C   0  0  0  0  0  0  0  0  0  0  0  0
    4.0309   -8.7869   -2.2534 N   0  0  0  0  0  0  0  0  0  0  0  0
    3.6387   -1.5855   -3.9521 H   0  0  0  0  0  0  0  0  0  0  0  0
    2.3300   -3.4185   -4.2928 H   0  0  0  0  0  0  0  0  0  0  0  0
    3.8909   -2.8479   -2.0363 H   0  0  0  0  0  0  0  0  0  0  0  0
    0.2965   -3.7168   -3.0642 H   0  0  0  0  0  0  0  0  0  0  0  0
   -0.9175   -1.7966   -3.3482 H   0  0  0  0  0  0  0  0  0  0  0  0
    1.0211   -1.1999   -1.4769 H   0  0  0  0  0  0  0  0  0  0  0  0
    4.2863   -4.7439   -3.9186 H   0  0  0  0  0  0  0  0  0  0  0  0
   -1.2277   -2.1388   -1.0177 H   0  0  0  0  0  0  0  0  0  0  0  0
   -0.1610   -2.2440    0.3865 H   0  0  0  0  0  0  0  0  0  0  0  0
    0.1362   -4.3772    0.0116 H   0  0  0  0  0  0  0  0  0  0  0  0
    3.7196   -9.3625   -1.5373 H   0  0  0  0  0  0  0  0  0  0  0  0
    4.5486   -9.1643   -2.9804 H   0  0  0  0  0  0  0  0  0  0  0  0
  2  1  1  0  0  0  0 
  2  3  1  0  0  0  0 
  4  2  1  0  0  0  0 
  3  5  1  0  0  0  0 
  3  6  1  0  0  0  0 
  4  7  1  0  0  0  0 
  8  4  1  0  0  0  0 
  8  5  1  0  0  0  0 
  6  9  1  0  0  0  0 
  6 10  1  0  0  0  0 
  8 11  1  0  0  0  0 
  9 12  2  0  0  0  0 
  9 13  1  0  0  0  0 
 10 14  2  0  0  0  0 
 11 15  1  0  0  0  0 
 13 16  2  0  0  0  0 
 14 16  1  0  0  0  0 
 16 17  1  0  0  0  0 
  1 18  1  0  0  0  0 
  2 19  1  0  0  0  0 
  3 20  1  0  0  0  0 
  4 21  1  0  0  0  0 
  7 22  1  0  0  0  0 
  8 23  1  0  0  0  0 
 10 24  1  0  0  0  0 
 11 25  1  0  0  0  0 
 11 26  1  0  0  0  0 
 15 27  1  0  0  0  0 
 17 28  1  0  0  0  0 
 17 29  1  0  0  0  0 
M  END
> <cdk:Title>
azacitidine

> <Conformer>
10

> <SuperDrugID>
SD000008

$$$$
