abarelix
  CDK     0628171801

196201  0  0  0  0  0  0  0  0999 V2000
   -2.6642   -3.8752    5.2757 C   0  0  0  0  0  0  0  0  0  0  0  0
    0.1938   -5.8090    4.0441 C   0  0  1  0  0  0  0  0  0  0  0  0
    0.0385   -2.2220    3.1946 N   0  0  0  0  0  0  0  0  0  0  0  0
    3.4812   -1.1488   -0.5200 C   0  0  2  0  0  0  0  0  0  0  0  0
    1.6867   -3.6339    0.7410 N   0  0  0  0  0  0  0  0  0  0  0  0
    0.5595   -6.0551   -0.9401 N   0  0  0  0  0  0  0  0  0  0  0  0
    3.4687   -8.0253   -0.4735 N   0  0  0  0  0  0  0  0  0  0  0  0
    4.4394   -9.2690    2.8781 N   0  0  0  0  0  0  0  0  0  0  0  0
    5.6057   -9.7669    5.6093 N   0  0  0  0  0  0  0  0  0  0  0  0
    2.8436  -10.6885    6.3363 N   0  0  0  0  0  0  0  0  0  0  0  0
    0.0162  -13.0699    2.1286 C   0  0  0  0  0  0  0  0  0  0  0  0
    0.0790  -16.3078    3.6547 N   0  0  0  0  0  0  0  0  0  0  0  0
   -3.3478   -3.6913    4.2416 O   0  0  0  0  0  0  0  0  0  0  0  0
   -3.3064   -3.6209    6.5796 C   0  0  0  0  0  0  0  0  0  0  0  0
   -0.5730   -4.4504    4.0198 C   0  0  1  0  0  0  0  0  0  0  0  0
   -1.3601   -4.2690    5.2080 N   0  0  0  0  0  0  0  0  0  0  0  0
    0.3347   -3.2825    3.9990 C   0  0  0  0  0  0  0  0  0  0  0  0
    1.3068   -3.2447    4.7926 O   0  0  0  0  0  0  0  0  0  0  0  0
    0.6870   -0.9449    3.2425 C   0  0  2  0  0  0  0  0  0  0  0  0
    0.0155   -0.1178    4.3976 C   0  0  2  0  0  0  0  0  0  0  0  0
    0.9071    0.8719    5.0595 C   0  0  0  0  0  0  0  0  0  0  0  0
    2.0077    0.4279    5.8332 C   0  0  0  0  0  0  0  0  0  0  0  0
    2.8344    1.3456    6.5048 C   0  0  0  0  0  0  0  0  0  0  0  0
    2.5660    2.7257    6.4245 C   0  0  0  0  0  0  0  0  0  0  0  0
    1.4731    3.1809    5.6609 C   0  0  0  0  0  0  0  0  0  0  0  0
    0.6506    2.2612    4.9844 C   0  0  0  0  0  0  0  0  0  0  0  0
    0.5887   -0.3445    1.8796 C   0  0  0  0  0  0  0  0  0  0  0  0
   -0.4085    0.3544    1.5827 O   0  0  0  0  0  0  0  0  0  0  0  0
    2.7079   -1.2518    0.8363 C   0  0  1  0  0  0  0  0  0  0  0  0
    1.4756   -0.5155    0.8506 N   0  0  0  0  0  0  0  0  0  0  0  0
    2.5701   -2.6939    1.1940 C   0  0  0  0  0  0  0  0  0  0  0  0
    3.3994   -3.1501    2.0169 O   0  0  0  0  0  0  0  0  0  0  0  0
    1.9754   -6.2558   -1.3136 C   0  0  1  0  0  0  0  0  0  0  0  0
    2.7711   -5.1218   -2.0276 C   0  0  2  0  0  0  0  0  0  0  0  0
    4.1121   -5.5619   -2.5183 C   0  0  0  0  0  0  0  0  0  0  0  0
    5.2882   -5.2366   -1.8015 C   0  0  0  0  0  0  0  0  0  0  0  0
    6.5430   -5.7069   -2.2298 C   0  0  0  0  0  0  0  0  0  0  0  0
    6.6429   -6.5041   -3.3865 C   0  0  0  0  0  0  0  0  0  0  0  0
    7.8449   -6.9641   -3.8134 O   0  0  0  0  0  0  0  0  0  0  0  0
    5.4818   -6.8270   -4.1121 C   0  0  0  0  0  0  0  0  0  0  0  0
    4.2267   -6.3585   -3.6826 C   0  0  0  0  0  0  0  0  0  0  0  0
    2.7725   -6.8790   -0.2135 C   0  0  0  0  0  0  0  0  0  0  0  0
    2.8545   -6.3321    0.9085 O   0  0  0  0  0  0  0  0  0  0  0  0
    4.4273   -8.6996    0.3685 C   0  0  2  0  0  0  0  0  0  0  0  0
    5.0125   -9.8864   -0.4745 C   0  0  1  0  0  0  0  0  0  0  0  0
    6.4090  -10.2583   -0.1661 C   0  0  0  0  0  0  0  0  0  0  0  0
    7.4201   -9.4235   -0.4688 N   0  0  0  0  0  0  0  0  0  0  0  0
    6.6854  -11.3607    0.3619 O   0  0  0  0  0  0  0  0  0  0  0  0
    3.8233   -9.1367    1.6658 C   0  0  0  0  0  0  0  0  0  0  0  0
    2.6023   -9.4192    1.6907 O   0  0  0  0  0  0  0  0  0  0  0  0
    0.5388  -13.9109    3.3208 C   0  0  1  0  0  0  0  0  0  0  0  0
    0.6702  -13.0921    4.4883 N   0  0  0  0  0  0  0  0  0  0  0  0
   -0.3733  -15.0402    3.6295 C   0  0  0  0  0  0  0  0  0  0  0  0
   -1.5856  -14.8487    3.8854 O   0  0  0  0  0  0  0  0  0  0  0  0
   -0.6970   -6.9846    3.8087 C   0  0  0  0  0  0  0  0  0  0  0  0
   -1.6728   -7.3530    4.7653 C   0  0  0  0  0  0  0  0  0  0  0  0
   -2.5733   -8.4018    4.5146 C   0  0  0  0  0  0  0  0  0  0  0  0
   -2.4969   -9.1388    3.3158 C   0  0  0  0  0  0  0  0  0  0  0  0
   -1.4694   -8.8369    2.3776 C   0  0  0  0  0  0  0  0  0  0  0  0
   -0.5920   -7.7578    2.6282 C   0  0  0  0  0  0  0  0  0  0  0  0
   -1.3646   -9.6151    1.2021 C   0  0  0  0  0  0  0  0  0  0  0  0
   -2.3218  -10.5984    0.9069 C   0  0  0  0  0  0  0  0  0  0  0  0
   -3.3500  -10.8779    1.8222 C   0  0  0  0  0  0  0  0  0  0  0  0
   -3.4258  -10.1658    3.0333 C   0  0  0  0  0  0  0  0  0  0  0  0
    3.5495    3.8316    7.2460 Cl  0  0  0  0  0  0  0  0  0  0  0  0
    3.7689    0.2274   -1.0205 C   0  0  0  0  0  0  0  0  0  0  0  0
    2.9868    0.8078   -2.0505 C   0  0  0  0  0  0  0  0  0  0  0  0
    3.3012    2.0823   -2.5609 C   0  0  0  0  0  0  0  0  0  0  0  0
    4.3982    2.7764   -2.0211 C   0  0  0  0  0  0  0  0  0  0  0  0
    5.1409    2.2068   -1.0368 N   0  0  0  0  0  0  0  0  0  0  0  0
    4.8698    0.9735   -0.5310 C   0  0  0  0  0  0  0  0  0  0  0  0
   -0.2917   -7.1947   -1.2863 C   0  0  0  0  0  0  0  0  0  0  0  0
    9.2014   -5.6909   11.3341 C   0  0  2  0  0  0  0  0  0  0  0  0
    8.7873   -4.8328   12.5588 C   0  0  0  0  0  0  0  0  0  0  0  0
    9.8709   -4.8047   10.2464 C   0  0  0  0  0  0  0  0  0  0  0  0
   -0.0324   -4.9503   -0.2836 C   0  0  0  0  0  0  0  0  0  0  0  0
    0.3758   -2.7083   -1.3488 C   0  0  1  0  0  0  0  0  0  0  0  0
   -0.9146   -2.8236   -1.9468 O   0  0  0  0  0  0  0  0  0  0  0  0
    0.4862   -3.5595   -0.0433 C   0  0  2  0  0  0  0  0  0  0  0  0
   -1.2050   -5.0790    0.1530 O   0  0  0  0  0  0  0  0  0  0  0  0
    5.9787  -10.1654    4.3583 C   0  0  0  0  0  0  0  0  0  0  0  0
    8.3109   -6.2267    4.1140 C   0  0  0  0  0  0  0  0  0  0  0  0
    6.3801   -7.7980    3.4858 C   0  0  1  0  0  0  0  0  0  0  0  0
    5.8354   -9.2337    3.2090 C   0  0  2  0  0  0  0  0  0  0  0  0
    8.8601   -8.4088    2.9179 C   0  0  0  0  0  0  0  0  0  0  0  0
    7.8874   -7.7086    3.9103 C   0  0  1  0  0  0  0  0  0  0  0  0
    6.3759  -11.3365    4.1474 O   0  0  0  0  0  0  0  0  0  0  0  0
    4.0738  -11.3052    6.5587 C   0  0  0  0  0  0  0  0  0  0  0  0
    7.9877   -6.4020   10.8440 N   0  0  1  0  0  0  0  0  0  0  0  0
    6.8749   -9.1879    8.3786 C   0  0  1  0  0  0  0  0  0  0  0  0
    5.4744   -9.8001    8.0811 C   0  0  1  0  0  0  0  0  0  0  0  0
    5.3890  -10.6099    6.7496 C   0  0  2  0  0  0  0  0  0  0  0  0
    6.8361   -8.1955    9.5764 C   0  0  2  0  0  0  0  0  0  0  0  0
    8.1821   -7.4740    9.8361 C   0  0  1  0  0  0  0  0  0  0  0  0
    4.1227  -12.5601    6.5451 O   0  0  0  0  0  0  0  0  0  0  0  0
    1.6948  -12.2249    4.7461 C   0  0  0  0  0  0  0  0  0  0  0  0
    1.6325  -11.4096    5.9917 C   0  0  2  0  0  0  0  0  0  0  0  0
    0.5333  -10.3191    5.8551 C   0  0  2  0  0  0  0  0  0  0  0  0
    1.3155   -9.0176    5.6817 C   0  0  2  0  0  0  0  0  0  0  0  0
    2.5928   -9.2830    6.4769 C   0  0  1  0  0  0  0  0  0  0  0  0
    2.6470  -12.0859    3.9403 O   0  0  0  0  0  0  0  0  0  0  0  0
    0.9718   -5.7770    3.2755 H   0  0  0  0  0  0  0  0  0  0  0  0
    0.7129   -5.9280    5.0005 H   0  0  0  0  0  0  0  0  0  0  0  0
   -0.7189   -2.3153    2.5922 H   0  0  0  0  0  0  0  0  0  0  0  0
    2.9348   -1.6937   -1.2878 H   0  0  0  0  0  0  0  0  0  0  0  0
    4.4396   -1.6702   -0.4188 H   0  0  0  0  0  0  0  0  0  0  0  0
    1.8643   -4.5166    1.0914 H   0  0  0  0  0  0  0  0  0  0  0  0
    3.3251   -8.4082   -1.3532 H   0  0  0  0  0  0  0  0  0  0  0  0
    3.8413   -9.4565    3.6188 H   0  0  0  0  0  0  0  0  0  0  0  0
    5.3944   -8.8272    5.7209 H   0  0  0  0  0  0  0  0  0  0  0  0
   -0.0112  -13.6713    1.2176 H   0  0  0  0  0  0  0  0  0  0  0  0
   -0.9891  -12.7018    2.3381 H   0  0  0  0  0  0  0  0  0  0  0  0
    0.6664  -12.2110    1.9525 H   0  0  0  0  0  0  0  0  0  0  0  0
    1.0145  -16.4950    3.4761 H   0  0  0  0  0  0  0  0  0  0  0  0
   -0.5287  -17.0375    3.8540 H   0  0  0  0  0  0  0  0  0  0  0  0
   -4.1574   -4.2922    6.7102 H   0  0  0  0  0  0  0  0  0  0  0  0
   -3.6635   -2.5883    6.6131 H   0  0  0  0  0  0  0  0  0  0  0  0
   -2.6112   -3.7720    7.4091 H   0  0  0  0  0  0  0  0  0  0  0  0
   -1.1919   -4.4281    3.1150 H   0  0  0  0  0  0  0  0  0  0  0  0
   -0.9038   -4.4191    6.0505 H   0  0  0  0  0  0  0  0  0  0  0  0
    1.7484   -1.0765    3.4703 H   0  0  0  0  0  0  0  0  0  0  0  0
   -0.3152   -0.7918    5.1946 H   0  0  0  0  0  0  0  0  0  0  0  0
   -0.8974    0.3635    4.0333 H   0  0  0  0  0  0  0  0  0  0  0  0
    2.2093   -0.5721    5.9235 H   0  0  0  0  0  0  0  0  0  0  0  0
    3.6263    1.0000    7.0540 H   0  0  0  0  0  0  0  0  0  0  0  0
    1.2678    4.1812    5.5948 H   0  0  0  0  0  0  0  0  0  0  0  0
   -0.1438    2.6151    4.4450 H   0  0  0  0  0  0  0  0  0  0  0  0
    3.3485   -0.7724    1.5832 H   0  0  0  0  0  0  0  0  0  0  0  0
    1.2430   -0.0684    0.0207 H   0  0  0  0  0  0  0  0  0  0  0  0
    1.9715   -7.0032   -2.1189 H   0  0  0  0  0  0  0  0  0  0  0  0
    2.9051   -4.2790   -1.3584 H   0  0  0  0  0  0  0  0  0  0  0  0
    2.1927   -4.7813   -2.8891 H   0  0  0  0  0  0  0  0  0  0  0  0
    5.2371   -4.6666   -0.9530 H   0  0  0  0  0  0  0  0  0  0  0  0
    7.3806   -5.4703   -1.6936 H   0  0  0  0  0  0  0  0  0  0  0  0
    8.5142   -6.4245   -3.3425 H   0  0  0  0  0  0  0  0  0  0  0  0
    5.5467   -7.4036   -4.9538 H   0  0  0  0  0  0  0  0  0  0  0  0
    3.3943   -6.6077   -4.2231 H   0  0  0  0  0  0  0  0  0  0  0  0
    5.2175   -7.9744    0.5742 H   0  0  0  0  0  0  0  0  0  0  0  0
    4.3659  -10.7625   -0.3688 H   0  0  0  0  0  0  0  0  0  0  0  0
    5.0115   -9.6298   -1.5392 H   0  0  0  0  0  0  0  0  0  0  0  0
    8.3346   -9.6676   -0.2552 H   0  0  0  0  0  0  0  0  0  0  0  0
    7.2355   -8.5767   -0.9062 H   0  0  0  0  0  0  0  0  0  0  0  0
    1.5225  -14.3134    3.0519 H   0  0  0  0  0  0  0  0  0  0  0  0
   -0.0485  -13.1324    5.1404 H   0  0  0  0  0  0  0  0  0  0  0  0
   -1.7373   -6.8605    5.6578 H   0  0  0  0  0  0  0  0  0  0  0  0
   -3.2860   -8.6206    5.2159 H   0  0  0  0  0  0  0  0  0  0  0  0
    0.1244   -7.5230    1.9346 H   0  0  0  0  0  0  0  0  0  0  0  0
   -0.5959   -9.4702    0.5499 H   0  0  0  0  0  0  0  0  0  0  0  0
   -2.2686  -11.1107    0.0238 H   0  0  0  0  0  0  0  0  0  0  0  0
   -4.0409  -11.5998    1.6081 H   0  0  0  0  0  0  0  0  0  0  0  0
   -4.1693  -10.3939    3.6983 H   0  0  0  0  0  0  0  0  0  0  0  0
    2.1874    0.3010   -2.4453 H   0  0  0  0  0  0  0  0  0  0  0  0
    2.7458    2.4962   -3.3163 H   0  0  0  0  0  0  0  0  0  0  0  0
    4.6382    3.7065   -2.3731 H   0  0  0  0  0  0  0  0  0  0  0  0
    5.4857    0.5906    0.1934 H   0  0  0  0  0  0  0  0  0  0  0  0
    0.2283   -8.1330   -1.0823 H   0  0  0  0  0  0  0  0  0  0  0  0
   -1.2438   -7.2521   -0.7571 H   0  0  0  0  0  0  0  0  0  0  0  0
   -0.5101   -7.1584   -2.3564 H   0  0  0  0  0  0  0  0  0  0  0  0
    9.9329   -6.4263   11.6836 H   0  0  0  0  0  0  0  0  0  0  0  0
    9.6607   -4.3477   13.0010 H   0  0  0  0  0  0  0  0  0  0  0  0
    8.3278   -5.4623   13.3236 H   0  0  0  0  0  0  0  0  0  0  0  0
    8.0706   -4.0618   12.2658 H   0  0  0  0  0  0  0  0  0  0  0  0
   10.7323   -4.2096   10.7776 H   0  0  0  0  0  0  0  0  0  0  0  0
   10.2088   -5.4929    9.4149 H   0  0  0  0  0  0  0  0  0  0  0  0
    9.0535   -4.1743    9.7827 H   0  0  0  0  0  0  0  0  0  0  0  0
    1.1012   -2.9848   -2.1010 H   0  0  0  0  0  0  0  0  0  0  0  0
    0.5077   -1.6536   -1.1370 H   0  0  0  0  0  0  0  0  0  0  0  0
   -0.8899   -2.2249   -2.7238 H   0  0  0  0  0  0  0  0  0  0  0  0
   -0.2012   -3.0480    0.6391 H   0  0  0  0  0  0  0  0  0  0  0  0
    7.6711   -5.7466    4.8568 H   0  0  0  0  0  0  0  0  0  0  0  0
    8.2355   -5.6728    3.1751 H   0  0  0  0  0  0  0  0  0  0  0  0
    9.3419   -6.1678    4.4702 H   0  0  0  0  0  0  0  0  0  0  0  0
    6.2346   -7.1934    2.5875 H   0  0  0  0  0  0  0  0  0  0  0  0
    5.7703   -7.3434    4.2716 H   0  0  0  0  0  0  0  0  0  0  0  0
    6.3923   -9.6433    2.3730 H   0  0  0  0  0  0  0  0  0  0  0  0
    8.7092   -8.0327    1.9043 H   0  0  0  0  0  0  0  0  0  0  0  0
    8.7040   -9.4886    2.9213 H   0  0  0  0  0  0  0  0  0  0  0  0
    9.8991   -8.2323    3.2045 H   0  0  0  0  0  0  0  0  0  0  0  0
    7.9984   -8.2054    4.8791 H   0  0  0  0  0  0  0  0  0  0  0  0
    7.5627   -6.8495   11.6593 H   0  0  0  0  0  0  0  0  0  0  0  0
    7.5836   -9.9931    8.5943 H   0  0  0  0  0  0  0  0  0  0  0  0
    7.2283   -8.6531    7.4931 H   0  0  0  0  0  0  0  0  0  0  0  0
    5.2011  -10.4529    8.9161 H   0  0  0  0  0  0  0  0  0  0  0  0
    4.7566   -8.9813    8.0559 H   0  0  0  0  0  0  0  0  0  0  0  0
    6.1917  -11.3557    6.7970 H   0  0  0  0  0  0  0  0  0  0  0  0
    6.5404   -8.7349   10.4810 H   0  0  0  0  0  0  0  0  0  0  0  0
    6.0772   -7.4339    9.3748 H   0  0  0  0  0  0  0  0  0  0  0  0
    8.5286   -7.0335    8.8994 H   0  0  0  0  0  0  0  0  0  0  0  0
    8.9233   -8.1977   10.1856 H   0  0  0  0  0  0  0  0  0  0  0  0
    1.3782  -12.0736    6.8269 H   0  0  0  0  0  0  0  0  0  0  0  0
   -0.0607  -10.2603    6.7732 H   0  0  0  0  0  0  0  0  0  0  0  0
   -0.1413  -10.4656    5.0054 H   0  0  0  0  0  0  0  0  0  0  0  0
    0.7658   -8.1659    6.0874 H   0  0  0  0  0  0  0  0  0  0  0  0
    1.5540   -8.8464    4.6253 H   0  0  0  0  0  0  0  0  0  0  0  0
    2.4179   -9.0521    7.5331 H   0  0  0  0  0  0  0  0  0  0  0  0
    3.3823   -8.6408    6.0901 H   0  0  0  0  0  0  0  0  0  0  0  0
  1 16  1  0  0  0  0 
 17  3  1  0  0  0  0 
 27 30  1  0  0  0  0 
 31  5  1  0  0  0  0 
 76  6  1  0  0  0  0 
 42  7  1  0  0  0  0 
 49  8  1  0  0  0  0 
 81  9  1  0  0  0  0 
 88 10  1  0  0  0  0 
 96 52  1  0  0  0  0 
 53 12  1  0  0  0  0 
  1 13  2  0  0  0  0 
  1 14  1  0  0  0  0 
  2 15  1  0  0  0  0 
 15 16  1  0  0  0  0 
 15 17  1  0  0  0  0 
 17 18  2  0  0  0  0 
 19  3  1  0  0  0  0 
 19 20  1  0  0  0  0 
 20 21  1  0  0  0  0 
 21 22  2  0  0  0  0 
 22 23  1  0  0  0  0 
 23 24  2  0  0  0  0 
 24 25  1  0  0  0  0 
 25 26  2  0  0  0  0 
 21 26  1  0  0  0  0 
 19 27  1  0  0  0  0 
 27 28  2  0  0  0  0 
  4 29  1  0  0  0  0 
 29 30  1  0  0  0  0 
 29 31  1  0  0  0  0 
 31 32  2  0  0  0  0 
 33  6  1  0  0  0  0 
 33 34  1  0  0  0  0 
 34 35  1  0  0  0  0 
 35 36  2  0  0  0  0 
 36 37  1  0  0  0  0 
 37 38  2  0  0  0  0 
 38 39  1  0  0  0  0 
 38 40  1  0  0  0  0 
 40 41  2  0  0  0  0 
 35 41  1  0  0  0  0 
 33 42  1  0  0  0  0 
 42 43  2  0  0  0  0 
 44  7  1  0  0  0  0 
 44 45  1  0  0  0  0 
 45 46  1  0  0  0  0 
 46 47  1  0  0  0  0 
 46 48  2  0  0  0  0 
 44 49  1  0  0  0  0 
 49 50  2  0  0  0  0 
 11 51  1  0  0  0  0 
 51 52  1  0  0  0  0 
 51 53  1  0  0  0  0 
 53 54  2  0  0  0  0 
  2 55  1  0  0  0  0 
 56 57  1  0  0  0  0 
 57 58  2  0  0  0  0 
 58 59  1  0  0  0  0 
 59 60  2  0  0  0  0 
 55 56  2  0  0  0  0 
 55 60  1  0  0  0  0 
 61 62  2  0  0  0  0 
 62 63  1  0  0  0  0 
 63 64  2  0  0  0  0 
 58 64  1  0  0  0  0 
 59 61  1  0  0  0  0 
 24 65  1  0  0  0  0 
  4 66  1  0  0  0  0 
 67 68  1  0  0  0  0 
 68 69  2  0  0  0  0 
 69 70  1  0  0  0  0 
 70 71  2  0  0  0  0 
 66 67  2  0  0  0  0 
 66 71  1  0  0  0  0 
  6 72  1  0  0  0  0 
 89 73  1  0  0  0  0 
 73 74  1  0  0  0  0 
 73 75  1  0  0  0  0 
 79  5  1  0  0  0  0 
 79 77  1  0  0  0  0 
 77 78  1  0  0  0  0 
 79 76  1  0  0  0  0 
 76 80  2  0  0  0  0 
 85 86  1  0  0  0  0 
 86 82  1  0  0  0  0 
 86 83  1  0  0  0  0 
 83 84  1  0  0  0  0 
 84  8  1  0  0  0  0 
 84 81  1  0  0  0  0 
 81 87  2  0  0  0  0 
 89 94  1  0  0  0  0 
 94 93  1  0  0  0  0 
 93 90  1  0  0  0  0 
 90 91  1  0  0  0  0 
 91 92  1  0  0  0  0 
 92  9  1  0  0  0  0 
 92 88  1  0  0  0  0 
 88 95  2  0  0  0  0 
101 96  2  0  0  0  0 
 97 96  1  0  0  0  0 
 97 98  1  0  0  0  0 
 98 99  1  0  0  0  0 
 99100  1  0  0  0  0 
100 10  1  0  0  0  0 
 97 10  1  0  0  0  0 
  2102  1  0  0  0  0 
  2103  1  0  0  0  0 
  3104  1  0  0  0  0 
  4105  1  0  0  0  0 
  4106  1  0  0  0  0 
  5107  1  0  0  0  0 
  7108  1  0  0  0  0 
  8109  1  0  0  0  0 
  9110  1  0  0  0  0 
 11111  1  0  0  0  0 
 11112  1  0  0  0  0 
 11113  1  0  0  0  0 
 12114  1  0  0  0  0 
 12115  1  0  0  0  0 
 14116  1  0  0  0  0 
 14117  1  0  0  0  0 
 14118  1  0  0  0  0 
 15119  1  0  0  0  0 
 16120  1  0  0  0  0 
 19121  1  0  0  0  0 
 20122  1  0  0  0  0 
 20123  1  0  0  0  0 
 22124  1  0  0  0  0 
 23125  1  0  0  0  0 
 25126  1  0  0  0  0 
 26127  1  0  0  0  0 
 29128  1  0  0  0  0 
 30129  1  0  0  0  0 
 33130  1  0  0  0  0 
 34131  1  0  0  0  0 
 34132  1  0  0  0  0 
 36133  1  0  0  0  0 
 37134  1  0  0  0  0 
 39135  1  0  0  0  0 
 40136  1  0  0  0  0 
 41137  1  0  0  0  0 
 44138  1  0  0  0  0 
 45139  1  0  0  0  0 
 45140  1  0  0  0  0 
 47141  1  0  0  0  0 
 47142  1  0  0  0  0 
 51143  1  0  0  0  0 
 52144  1  0  0  0  0 
 56145  1  0  0  0  0 
 57146  1  0  0  0  0 
 60147  1  0  0  0  0 
 61148  1  0  0  0  0 
 62149  1  0  0  0  0 
 63150  1  0  0  0  0 
 64151  1  0  0  0  0 
 67152  1  0  0  0  0 
 68153  1  0  0  0  0 
 69154  1  0  0  0  0 
 71155  1  0  0  0  0 
 72156  1  0  0  0  0 
 72157  1  0  0  0  0 
 72158  1  0  0  0  0 
 73159  1  0  0  0  0 
 74160  1  0  0  0  0 
 74161  1  0  0  0  0 
 74162  1  0  0  0  0 
 75163  1  0  0  0  0 
 75164  1  0  0  0  0 
 75165  1  0  0  0  0 
 77166  1  0  0  0  0 
 77167  1  0  0  0  0 
 78168  1  0  0  0  0 
 79169  1  0  0  0  0 
 82170  1  0  0  0  0 
 82171  1  0  0  0  0 
 82172  1  0  0  0  0 
 83173  1  0  0  0  0 
 83174  1  0  0  0  0 
 84175  1  0  0  0  0 
 85176  1  0  0  0  0 
 85177  1  0  0  0  0 
 85178  1  0  0  0  0 
 86179  1  0  0  0  0 
 89180  1  0  0  0  0 
 90181  1  0  0  0  0 
 90182  1  0  0  0  0 
 91183  1  0  0  0  0 
 91184  1  0  0  0  0 
 92185  1  0  0  0  0 
 93186  1  0  0  0  0 
 93187  1  0  0  0  0 
 94188  1  0  0  0  0 
 94189  1  0  0  0  0 
 97190  1  0  0  0  0 
 98191  1  0  0  0  0 
 98192  1  0  0  0  0 
 99193  1  0  0  0  0 
 99194  1  0  0  0  0 
100195  1  0  0  0  0 
100196  1  0  0  0  0 
M  END
> <cdk:Title>
abarelix

> <Conformer>
1

> <SuperDrugID>
SD000014

$$$$
abarelix
  CDK     0628171801

196201  0  0  0  0  0  0  0  0999 V2000
   -2.6380   -2.6943    5.7891 C   0  0  0  0  0  0  0  0  0  0  0  0
   -2.2781   -5.2287    3.9276 C   0  0  1  0  0  0  0  0  0  0  0  0
   -0.5057   -1.9403    3.0312 N   0  0  0  0  0  0  0  0  0  0  0  0
    4.3177   -0.5309    0.1379 C   0  0  2  0  0  0  0  0  0  0  0  0
    3.3535    2.5442    1.1224 N   0  0  0  0  0  0  0  0  0  0  0  0
    5.3233    4.7764    2.2479 N   0  0  0  0  0  0  0  0  0  0  0  0
    5.9113    6.4201   -0.7673 N   0  0  0  0  0  0  0  0  0  0  0  0
    3.1936    8.7310   -1.2464 N   0  0  0  0  0  0  0  0  0  0  0  0
    0.4167    9.1057   -1.1519 N   0  0  0  0  0  0  0  0  0  0  0  0
    0.6460    9.1967    1.7833 N   0  0  0  0  0  0  0  0  0  0  0  0
    5.7871   10.9753    3.8352 C   0  0  0  0  0  0  0  0  0  0  0  0
    5.2854   14.0487    4.1828 N   0  0  0  0  0  0  0  0  0  0  0  0
   -1.7086   -3.2803    6.3935 O   0  0  0  0  0  0  0  0  0  0  0  0
   -3.5250   -1.7944    6.5416 C   0  0  0  0  0  0  0  0  0  0  0  0
   -2.0878   -3.7169    3.5649 C   0  0  1  0  0  0  0  0  0  0  0  0
   -2.8409   -2.8622    4.4489 N   0  0  0  0  0  0  0  0  0  0  0  0
   -0.6869   -3.2126    3.4941 C   0  0  0  0  0  0  0  0  0  0  0  0
    0.2679   -3.8816    3.9551 O   0  0  0  0  0  0  0  0  0  0  0  0
    0.5865   -1.0566    3.3368 C   0  0  2  0  0  0  0  0  0  0  0  0
   -0.0078   -0.0899    4.4078 C   0  0  2  0  0  0  0  0  0  0  0  0
    0.9277    0.8847    5.0295 C   0  0  0  0  0  0  0  0  0  0  0  0
    2.0255    0.4338    5.7996 C   0  0  0  0  0  0  0  0  0  0  0  0
    2.8333    1.3483    6.5020 C   0  0  0  0  0  0  0  0  0  0  0  0
    2.5601    2.7277    6.4418 C   0  0  0  0  0  0  0  0  0  0  0  0
    1.4892    3.1915    5.6556 C   0  0  0  0  0  0  0  0  0  0  0  0
    0.6884    2.2771    4.9471 C   0  0  0  0  0  0  0  0  0  0  0  0
    1.0610   -0.3592    2.1113 C   0  0  0  0  0  0  0  0  0  0  0  0
    0.2354    0.2921    1.4272 O   0  0  0  0  0  0  0  0  0  0  0  0
    2.9076    0.0474    0.4797 C   0  0  1  0  0  0  0  0  0  0  0  0
    2.3680   -0.4500    1.7165 N   0  0  0  0  0  0  0  0  0  0  0  0
    2.8956    1.5356    0.3167 C   0  0  0  0  0  0  0  0  0  0  0  0
    2.4161    1.9694   -0.7571 O   0  0  0  0  0  0  0  0  0  0  0  0
    5.9912    4.6372    0.9362 C   0  0  1  0  0  0  0  0  0  0  0  0
    6.4772    3.2587    0.3712 C   0  0  2  0  0  0  0  0  0  0  0  0
    7.1799    3.4366   -0.9367 C   0  0  0  0  0  0  0  0  0  0  0  0
    6.4957    3.2232   -2.1569 C   0  0  0  0  0  0  0  0  0  0  0  0
    7.0851    3.5934   -3.3802 C   0  0  0  0  0  0  0  0  0  0  0  0
    8.3702    4.1699   -3.4054 C   0  0  0  0  0  0  0  0  0  0  0  0
    8.9344    4.5817   -4.5688 O   0  0  0  0  0  0  0  0  0  0  0  0
    9.0802    4.3368   -2.2040 C   0  0  0  0  0  0  0  0  0  0  0  0
    8.4918    3.9681   -0.9815 C   0  0  0  0  0  0  0  0  0  0  0  0
    5.2502    5.4341   -0.0847 C   0  0  0  0  0  0  0  0  0  0  0  0
    4.0424    5.1900   -0.3124 O   0  0  0  0  0  0  0  0  0  0  0  0
    5.3271    7.3542   -1.6854 C   0  0  2  0  0  0  0  0  0  0  0  0
    6.4509    8.1420   -2.4216 C   0  0  1  0  0  0  0  0  0  0  0  0
    5.9717    8.8771   -3.6129 C   0  0  0  0  0  0  0  0  0  0  0  0
    5.5257    8.2240   -4.7022 N   0  0  0  0  0  0  0  0  0  0  0  0
    5.9802   10.1281   -3.6395 O   0  0  0  0  0  0  0  0  0  0  0  0
    4.4239    8.2594   -0.9201 C   0  0  0  0  0  0  0  0  0  0  0  0
    4.8125    8.6683    0.2000 O   0  0  0  0  0  0  0  0  0  0  0  0
    4.5215   11.8085    3.5077 C   0  0  1  0  0  0  0  0  0  0  0  0
    3.3587   10.9715    3.6506 N   0  0  0  0  0  0  0  0  0  0  0  0
    4.4400   13.0158    4.3670 C   0  0  0  0  0  0  0  0  0  0  0  0
    3.5931   13.1228    5.2836 O   0  0  0  0  0  0  0  0  0  0  0  0
   -3.7072   -5.5878    4.1845 C   0  0  0  0  0  0  0  0  0  0  0  0
   -4.1468   -5.9467    5.4803 C   0  0  0  0  0  0  0  0  0  0  0  0
   -5.5044   -6.2061    5.7399 C   0  0  0  0  0  0  0  0  0  0  0  0
   -6.4586   -6.1229    4.7039 C   0  0  0  0  0  0  0  0  0  0  0  0
   -6.0307   -5.7947    3.3850 C   0  0  0  0  0  0  0  0  0  0  0  0
   -4.6617   -5.5358    3.1418 C   0  0  0  0  0  0  0  0  0  0  0  0
   -6.9847   -5.7246    2.3435 C   0  0  0  0  0  0  0  0  0  0  0  0
   -8.3459   -5.9655    2.6057 C   0  0  0  0  0  0  0  0  0  0  0  0
   -8.7678   -6.2771    3.9097 C   0  0  0  0  0  0  0  0  0  0  0  0
   -7.8302   -6.3591    4.9539 C   0  0  0  0  0  0  0  0  0  0  0  0
    3.5070    3.8215    7.3215 Cl  0  0  0  0  0  0  0  0  0  0  0  0
    4.3675   -2.0178    0.0531 C   0  0  0  0  0  0  0  0  0  0  0  0
    4.9056   -2.8039    1.0997 C   0  0  0  0  0  0  0  0  0  0  0  0
    4.9544   -4.2072    0.9953 C   0  0  0  0  0  0  0  0  0  0  0  0
    4.4697   -4.8172   -0.1743 C   0  0  0  0  0  0  0  0  0  0  0  0
    3.9579   -4.0515   -1.1705 N   0  0  0  0  0  0  0  0  0  0  0  0
    3.8962   -2.6968   -1.0946 C   0  0  0  0  0  0  0  0  0  0  0  0
    5.7389    5.9765    2.9839 C   0  0  0  0  0  0  0  0  0  0  0  0
   -6.7817    7.4030   -4.2385 C   0  0  2  0  0  0  0  0  0  0  0  0
   -8.1970    7.0476   -3.7172 C   0  0  0  0  0  0  0  0  0  0  0  0
   -6.2610    6.3204   -5.2223 C   0  0  0  0  0  0  0  0  0  0  0  0
    4.3071    3.9710    2.8095 C   0  0  0  0  0  0  0  0  0  0  0  0
    4.8617    1.5319    2.9897 C   0  0  1  0  0  0  0  0  0  0  0  0
    5.2535    1.7929    4.3388 O   0  0  0  0  0  0  0  0  0  0  0  0
    3.8402    2.5820    2.4691 C   0  0  2  0  0  0  0  0  0  0  0  0
    3.6633    4.4373    3.7831 O   0  0  0  0  0  0  0  0  0  0  0  0
    1.2711    9.5723   -2.1067 C   0  0  0  0  0  0  0  0  0  0  0  0
    0.6503    5.8693   -4.6294 C   0  0  0  0  0  0  0  0  0  0  0  0
    2.0417    7.3457   -3.0636 C   0  0  1  0  0  0  0  0  0  0  0  0
    2.4427    8.7369   -2.4750 C   0  0  2  0  0  0  0  0  0  0  0  0
    1.3192    8.2051   -5.4156 C   0  0  0  0  0  0  0  0  0  0  0  0
    0.9464    7.3293   -4.1827 C   0  0  1  0  0  0  0  0  0  0  0  0
    1.1512   10.7211   -2.5938 O   0  0  0  0  0  0  0  0  0  0  0  0
    0.0131   10.1163    0.9466 C   0  0  0  0  0  0  0  0  0  0  0  0
   -5.8999    7.5351   -3.0505 N   0  0  1  0  0  0  0  0  0  0  0  0
   -2.6487    9.2001   -1.8126 C   0  0  1  0  0  0  0  0  0  0  0  0
   -1.9344    9.1331   -0.4311 C   0  0  1  0  0  0  0  0  0  0  0  0
   -0.5556    9.8544   -0.4171 C   0  0  2  0  0  0  0  0  0  0  0  0
   -3.9209    8.3141   -1.8495 C   0  0  2  0  0  0  0  0  0  0  0  0
   -4.7190    8.4172   -3.1698 C   0  0  1  0  0  0  0  0  0  0  0  0
   -0.0343   11.3124    1.3272 O   0  0  0  0  0  0  0  0  0  0  0  0
    2.6089   10.4546    2.6313 C   0  0  0  0  0  0  0  0  0  0  0  0
    1.4328    9.5881    2.9377 C   0  0  2  0  0  0  0  0  0  0  0  0
    1.8880    8.2609    3.6029 C   0  0  2  0  0  0  0  0  0  0  0  0
    0.9835    7.1928    2.9840 C   0  0  2  0  0  0  0  0  0  0  0  0
    0.6365    7.7753    1.6074 C   0  0  1  0  0  0  0  0  0  0  0  0
    2.9157   10.6835    1.4367 O   0  0  0  0  0  0  0  0  0  0  0  0
   -1.9048   -5.8490    3.1092 H   0  0  0  0  0  0  0  0  0  0  0  0
   -1.6669   -5.4661    4.8014 H   0  0  0  0  0  0  0  0  0  0  0  0
   -1.2511   -1.5468    2.5525 H   0  0  0  0  0  0  0  0  0  0  0  0
    5.0551   -0.1858    0.8573 H   0  0  0  0  0  0  0  0  0  0  0  0
    4.6451   -0.1305   -0.8263 H   0  0  0  0  0  0  0  0  0  0  0  0
    3.2710    3.4206    0.7195 H   0  0  0  0  0  0  0  0  0  0  0  0
    6.8587    6.5209   -0.5839 H   0  0  0  0  0  0  0  0  0  0  0  0
    2.7691    9.2052   -0.5111 H   0  0  0  0  0  0  0  0  0  0  0  0
    0.5266    8.1776   -0.8946 H   0  0  0  0  0  0  0  0  0  0  0  0
    6.6905   11.5555    3.6349 H   0  0  0  0  0  0  0  0  0  0  0  0
    5.7922   10.6731    4.8854 H   0  0  0  0  0  0  0  0  0  0  0  0
    5.8194   10.0757    3.2158 H   0  0  0  0  0  0  0  0  0  0  0  0
    5.9514   14.0157    3.4776 H   0  0  0  0  0  0  0  0  0  0  0  0
    5.2273   14.8321    4.7529 H   0  0  0  0  0  0  0  0  0  0  0  0
   -3.1923   -1.6905    7.5761 H   0  0  0  0  0  0  0  0  0  0  0  0
   -4.5398   -2.1939    6.5420 H   0  0  0  0  0  0  0  0  0  0  0  0
   -3.5261   -0.8078    6.0767 H   0  0  0  0  0  0  0  0  0  0  0  0
   -2.5094   -3.5826    2.5659 H   0  0  0  0  0  0  0  0  0  0  0  0
   -3.5701   -2.3597    4.0515 H   0  0  0  0  0  0  0  0  0  0  0  0
    1.4155   -1.6133    3.7848 H   0  0  0  0  0  0  0  0  0  0  0  0
   -0.4050   -0.6867    5.2360 H   0  0  0  0  0  0  0  0  0  0  0  0
   -0.8696    0.4263    3.9702 H   0  0  0  0  0  0  0  0  0  0  0  0
    2.2308   -0.5658    5.8749 H   0  0  0  0  0  0  0  0  0  0  0  0
    3.6135    1.0048    7.0671 H   0  0  0  0  0  0  0  0  0  0  0  0
    1.2823    4.1924    5.6006 H   0  0  0  0  0  0  0  0  0  0  0  0
   -0.0860    2.6368    4.3864 H   0  0  0  0  0  0  0  0  0  0  0  0
    2.2475   -0.3659   -0.2920 H   0  0  0  0  0  0  0  0  0  0  0  0
    2.9751   -0.9294    2.3020 H   0  0  0  0  0  0  0  0  0  0  0  0
    6.9617    5.1396    1.0410 H   0  0  0  0  0  0  0  0  0  0  0  0
    5.6464    2.5774    0.2345 H   0  0  0  0  0  0  0  0  0  0  0  0
    7.1657    2.7916    1.0798 H   0  0  0  0  0  0  0  0  0  0  0  0
    5.5482    2.8344   -2.1594 H   0  0  0  0  0  0  0  0  0  0  0  0
    6.5642    3.4601   -4.2489 H   0  0  0  0  0  0  0  0  0  0  0  0
    8.2185    4.5640   -5.2393 H   0  0  0  0  0  0  0  0  0  0  0  0
   10.0179    4.7469   -2.2153 H   0  0  0  0  0  0  0  0  0  0  0  0
    9.0194    4.1240   -0.1211 H   0  0  0  0  0  0  0  0  0  0  0  0
    4.7876    6.7671   -2.4199 H   0  0  0  0  0  0  0  0  0  0  0  0
    6.9243    8.8391   -1.7236 H   0  0  0  0  0  0  0  0  0  0  0  0
    7.2285    7.4496   -2.7553 H   0  0  0  0  0  0  0  0  0  0  0  0
    5.2207    8.7234   -5.4773 H   0  0  0  0  0  0  0  0  0  0  0  0
    5.5071    7.2538   -4.7145 H   0  0  0  0  0  0  0  0  0  0  0  0
    4.6080   12.1606    2.4753 H   0  0  0  0  0  0  0  0  0  0  0  0
    3.0852   10.7509    4.5552 H   0  0  0  0  0  0  0  0  0  0  0  0
   -3.4818   -6.0073    6.2548 H   0  0  0  0  0  0  0  0  0  0  0  0
   -5.7889   -6.4507    6.6931 H   0  0  0  0  0  0  0  0  0  0  0  0
   -4.3562   -5.2951    2.1948 H   0  0  0  0  0  0  0  0  0  0  0  0
   -6.6985   -5.4963    1.3869 H   0  0  0  0  0  0  0  0  0  0  0  0
   -9.0294   -5.9123    1.8469 H   0  0  0  0  0  0  0  0  0  0  0  0
   -9.7577   -6.4460    4.0979 H   0  0  0  0  0  0  0  0  0  0  0  0
   -8.1571   -6.5875    5.8963 H   0  0  0  0  0  0  0  0  0  0  0  0
    5.2656   -2.3590    1.9460 H   0  0  0  0  0  0  0  0  0  0  0  0
    5.3393   -4.7763    1.7540 H   0  0  0  0  0  0  0  0  0  0  0  0
    4.5039   -5.8330   -0.2832 H   0  0  0  0  0  0  0  0  0  0  0  0
    3.5113   -2.1795   -1.8872 H   0  0  0  0  0  0  0  0  0  0  0  0
    5.4957    6.8732    2.4098 H   0  0  0  0  0  0  0  0  0  0  0  0
    5.2950    6.1021    3.9711 H   0  0  0  0  0  0  0  0  0  0  0  0
    6.8181    5.9554    3.1479 H   0  0  0  0  0  0  0  0  0  0  0  0
   -6.8529    8.3554   -4.7733 H   0  0  0  0  0  0  0  0  0  0  0  0
   -8.9020    6.9481   -4.5452 H   0  0  0  0  0  0  0  0  0  0  0  0
   -8.5596    7.8372   -3.0547 H   0  0  0  0  0  0  0  0  0  0  0  0
   -8.1731    6.1084   -3.1589 H   0  0  0  0  0  0  0  0  0  0  0  0
   -7.0574    6.2371   -6.0810 H   0  0  0  0  0  0  0  0  0  0  0  0
   -5.2276    6.6405   -5.5526 H   0  0  0  0  0  0  0  0  0  0  0  0
   -6.0879    5.3757   -4.6226 H   0  0  0  0  0  0  0  0  0  0  0  0
    5.7569    1.5110    2.3799 H   0  0  0  0  0  0  0  0  0  0  0  0
    4.4181    0.5383    2.9909 H   0  0  0  0  0  0  0  0  0  0  0  0
    5.8991    1.0871    4.5615 H   0  0  0  0  0  0  0  0  0  0  0  0
    2.9360    2.3688    3.0481 H   0  0  0  0  0  0  0  0  0  0  0  0
    0.3375    5.2657   -3.7750 H   0  0  0  0  0  0  0  0  0  0  0  0
    1.5370    5.4105   -5.0725 H   0  0  0  0  0  0  0  0  0  0  0  0
   -0.1545    5.8500   -5.3670 H   0  0  0  0  0  0  0  0  0  0  0  0
    2.9240    6.8864   -3.5042 H   0  0  0  0  0  0  0  0  0  0  0  0
    1.7175    6.7100   -2.2360 H   0  0  0  0  0  0  0  0  0  0  0  0
    3.0384    9.2676   -3.2220 H   0  0  0  0  0  0  0  0  0  0  0  0
    2.2931    7.9151   -5.8166 H   0  0  0  0  0  0  0  0  0  0  0  0
    1.3546    9.2618   -5.1439 H   0  0  0  0  0  0  0  0  0  0  0  0
    0.5750    8.0930   -6.2082 H   0  0  0  0  0  0  0  0  0  0  0  0
    0.0158    7.7201   -3.7625 H   0  0  0  0  0  0  0  0  0  0  0  0
   -6.4664    7.9398   -2.3015 H   0  0  0  0  0  0  0  0  0  0  0  0
   -2.9217   10.2377   -2.0253 H   0  0  0  0  0  0  0  0  0  0  0  0
   -1.9637    8.8633   -2.5950 H   0  0  0  0  0  0  0  0  0  0  0  0
   -2.5852    9.5932    0.3172 H   0  0  0  0  0  0  0  0  0  0  0  0
   -1.8139    8.0833   -0.1655 H   0  0  0  0  0  0  0  0  0  0  0  0
   -0.7180   10.8233   -0.9042 H   0  0  0  0  0  0  0  0  0  0  0  0
   -4.5756    8.5967   -1.0202 H   0  0  0  0  0  0  0  0  0  0  0  0
   -3.6236    7.2708   -1.7063 H   0  0  0  0  0  0  0  0  0  0  0  0
   -4.0857    8.1130   -4.0054 H   0  0  0  0  0  0  0  0  0  0  0  0
   -5.0462    9.4481   -3.3253 H   0  0  0  0  0  0  0  0  0  0  0  0
    0.7761   10.1260    3.6294 H   0  0  0  0  0  0  0  0  0  0  0  0
    1.7712    8.2895    4.6899 H   0  0  0  0  0  0  0  0  0  0  0  0
    2.9300    8.0174    3.3678 H   0  0  0  0  0  0  0  0  0  0  0  0
    0.0771    7.0755    3.5863 H   0  0  0  0  0  0  0  0  0  0  0  0
    1.4872    6.2265    2.8989 H   0  0  0  0  0  0  0  0  0  0  0  0
   -0.3364    7.3896    1.3132 H   0  0  0  0  0  0  0  0  0  0  0  0
    1.3889    7.4808    0.8710 H   0  0  0  0  0  0  0  0  0  0  0  0
  1 16  1  0  0  0  0 
 17  3  1  0  0  0  0 
 27 30  1  0  0  0  0 
 31  5  1  0  0  0  0 
 76  6  1  0  0  0  0 
 42  7  1  0  0  0  0 
 49  8  1  0  0  0  0 
 81  9  1  0  0  0  0 
 88 10  1  0  0  0  0 
 96 52  1  0  0  0  0 
 53 12  1  0  0  0  0 
  1 13  2  0  0  0  0 
  1 14  1  0  0  0  0 
  2 15  1  0  0  0  0 
 15 16  1  0  0  0  0 
 15 17  1  0  0  0  0 
 17 18  2  0  0  0  0 
 19  3  1  0  0  0  0 
 19 20  1  0  0  0  0 
 20 21  1  0  0  0  0 
 21 22  2  0  0  0  0 
 22 23  1  0  0  0  0 
 23 24  2  0  0  0  0 
 24 25  1  0  0  0  0 
 25 26  2  0  0  0  0 
 21 26  1  0  0  0  0 
 19 27  1  0  0  0  0 
 27 28  2  0  0  0  0 
  4 29  1  0  0  0  0 
 29 30  1  0  0  0  0 
 29 31  1  0  0  0  0 
 31 32  2  0  0  0  0 
 33  6  1  0  0  0  0 
 33 34  1  0  0  0  0 
 34 35  1  0  0  0  0 
 35 36  2  0  0  0  0 
 36 37  1  0  0  0  0 
 37 38  2  0  0  0  0 
 38 39  1  0  0  0  0 
 38 40  1  0  0  0  0 
 40 41  2  0  0  0  0 
 35 41  1  0  0  0  0 
 33 42  1  0  0  0  0 
 42 43  2  0  0  0  0 
 44  7  1  0  0  0  0 
 44 45  1  0  0  0  0 
 45 46  1  0  0  0  0 
 46 47  1  0  0  0  0 
 46 48  2  0  0  0  0 
 44 49  1  0  0  0  0 
 49 50  2  0  0  0  0 
 11 51  1  0  0  0  0 
 51 52  1  0  0  0  0 
 51 53  1  0  0  0  0 
 53 54  2  0  0  0  0 
  2 55  1  0  0  0  0 
 56 57  1  0  0  0  0 
 57 58  2  0  0  0  0 
 58 59  1  0  0  0  0 
 59 60  2  0  0  0  0 
 55 56  2  0  0  0  0 
 55 60  1  0  0  0  0 
 61 62  2  0  0  0  0 
 62 63  1  0  0  0  0 
 63 64  2  0  0  0  0 
 58 64  1  0  0  0  0 
 59 61  1  0  0  0  0 
 24 65  1  0  0  0  0 
  4 66  1  0  0  0  0 
 67 68  1  0  0  0  0 
 68 69  2  0  0  0  0 
 69 70  1  0  0  0  0 
 70 71  2  0  0  0  0 
 66 67  2  0  0  0  0 
 66 71  1  0  0  0  0 
  6 72  1  0  0  0  0 
 89 73  1  0  0  0  0 
 73 74  1  0  0  0  0 
 73 75  1  0  0  0  0 
 79  5  1  0  0  0  0 
 79 77  1  0  0  0  0 
 77 78  1  0  0  0  0 
 79 76  1  0  0  0  0 
 76 80  2  0  0  0  0 
 85 86  1  0  0  0  0 
 86 82  1  0  0  0  0 
 86 83  1  0  0  0  0 
 83 84  1  0  0  0  0 
 84  8  1  0  0  0  0 
 84 81  1  0  0  0  0 
 81 87  2  0  0  0  0 
 89 94  1  0  0  0  0 
 94 93  1  0  0  0  0 
 93 90  1  0  0  0  0 
 90 91  1  0  0  0  0 
 91 92  1  0  0  0  0 
 92  9  1  0  0  0  0 
 92 88  1  0  0  0  0 
 88 95  2  0  0  0  0 
101 96  2  0  0  0  0 
 97 96  1  0  0  0  0 
 97 98  1  0  0  0  0 
 98 99  1  0  0  0  0 
 99100  1  0  0  0  0 
100 10  1  0  0  0  0 
 97 10  1  0  0  0  0 
  2102  1  0  0  0  0 
  2103  1  0  0  0  0 
  3104  1  0  0  0  0 
  4105  1  0  0  0  0 
  4106  1  0  0  0  0 
  5107  1  0  0  0  0 
  7108  1  0  0  0  0 
  8109  1  0  0  0  0 
  9110  1  0  0  0  0 
 11111  1  0  0  0  0 
 11112  1  0  0  0  0 
 11113  1  0  0  0  0 
 12114  1  0  0  0  0 
 12115  1  0  0  0  0 
 14116  1  0  0  0  0 
 14117  1  0  0  0  0 
 14118  1  0  0  0  0 
 15119  1  0  0  0  0 
 16120  1  0  0  0  0 
 19121  1  0  0  0  0 
 20122  1  0  0  0  0 
 20123  1  0  0  0  0 
 22124  1  0  0  0  0 
 23125  1  0  0  0  0 
 25126  1  0  0  0  0 
 26127  1  0  0  0  0 
 29128  1  0  0  0  0 
 30129  1  0  0  0  0 
 33130  1  0  0  0  0 
 34131  1  0  0  0  0 
 34132  1  0  0  0  0 
 36133  1  0  0  0  0 
 37134  1  0  0  0  0 
 39135  1  0  0  0  0 
 40136  1  0  0  0  0 
 41137  1  0  0  0  0 
 44138  1  0  0  0  0 
 45139  1  0  0  0  0 
 45140  1  0  0  0  0 
 47141  1  0  0  0  0 
 47142  1  0  0  0  0 
 51143  1  0  0  0  0 
 52144  1  0  0  0  0 
 56145  1  0  0  0  0 
 57146  1  0  0  0  0 
 60147  1  0  0  0  0 
 61148  1  0  0  0  0 
 62149  1  0  0  0  0 
 63150  1  0  0  0  0 
 64151  1  0  0  0  0 
 67152  1  0  0  0  0 
 68153  1  0  0  0  0 
 69154  1  0  0  0  0 
 71155  1  0  0  0  0 
 72156  1  0  0  0  0 
 72157  1  0  0  0  0 
 72158  1  0  0  0  0 
 73159  1  0  0  0  0 
 74160  1  0  0  0  0 
 74161  1  0  0  0  0 
 74162  1  0  0  0  0 
 75163  1  0  0  0  0 
 75164  1  0  0  0  0 
 75165  1  0  0  0  0 
 77166  1  0  0  0  0 
 77167  1  0  0  0  0 
 78168  1  0  0  0  0 
 79169  1  0  0  0  0 
 82170  1  0  0  0  0 
 82171  1  0  0  0  0 
 82172  1  0  0  0  0 
 83173  1  0  0  0  0 
 83174  1  0  0  0  0 
 84175  1  0  0  0  0 
 85176  1  0  0  0  0 
 85177  1  0  0  0  0 
 85178  1  0  0  0  0 
 86179  1  0  0  0  0 
 89180  1  0  0  0  0 
 90181  1  0  0  0  0 
 90182  1  0  0  0  0 
 91183  1  0  0  0  0 
 91184  1  0  0  0  0 
 92185  1  0  0  0  0 
 93186  1  0  0  0  0 
 93187  1  0  0  0  0 
 94188  1  0  0  0  0 
 94189  1  0  0  0  0 
 97190  1  0  0  0  0 
 98191  1  0  0  0  0 
 98192  1  0  0  0  0 
 99193  1  0  0  0  0 
 99194  1  0  0  0  0 
100195  1  0  0  0  0 
100196  1  0  0  0  0 
M  END
> <cdk:Title>
abarelix

> <Conformer>
2

> <SuperDrugID>
SD000014

$$$$
abarelix
  CDK     0628171801

196201  0  0  0  0  0  0  0  0999 V2000
   -0.5962   -4.2555    6.8745 C   0  0  0  0  0  0  0  0  0  0  0  0
   -0.1914   -5.8581    4.0949 C   0  0  1  0  0  0  0  0  0  0  0  0
   -0.1662   -2.2392    3.3542 N   0  0  0  0  0  0  0  0  0  0  0  0
    2.7731   -1.6866   -0.8290 C   0  0  2  0  0  0  0  0  0  0  0  0
    1.0009   -3.9570    0.8391 N   0  0  0  0  0  0  0  0  0  0  0  0
   -0.3819   -6.3419   -0.7369 N   0  0  0  0  0  0  0  0  0  0  0  0
    2.3696   -8.4740   -0.2825 N   0  0  0  0  0  0  0  0  0  0  0  0
    3.5399   -9.6684    3.0230 N   0  0  0  0  0  0  0  0  0  0  0  0
    4.9147  -10.0491    5.7136 N   0  0  0  0  0  0  0  0  0  0  0  0
    2.1459  -10.6873    6.6504 N   0  0  0  0  0  0  0  0  0  0  0  0
   -1.2338  -12.8859    2.7510 C   0  0  0  0  0  0  0  0  0  0  0  0
   -1.2011  -16.1012    4.2876 N   0  0  0  0  0  0  0  0  0  0  0  0
    0.6055   -4.6037    6.9571 O   0  0  0  0  0  0  0  0  0  0  0  0
   -1.3226   -3.9110    8.1087 C   0  0  0  0  0  0  0  0  0  0  0  0
   -0.7387   -4.4122    4.3570 C   0  0  1  0  0  0  0  0  0  0  0  0
   -1.2583   -4.1770    5.6797 N   0  0  0  0  0  0  0  0  0  0  0  0
    0.2407   -3.3404    4.0480 C   0  0  0  0  0  0  0  0  0  0  0  0
    1.4059   -3.4251    4.5045 O   0  0  0  0  0  0  0  0  0  0  0  0
    0.5536   -1.0041    3.2690 C   0  0  2  0  0  0  0  0  0  0  0  0
   -0.0088   -0.1218    4.4442 C   0  0  2  0  0  0  0  0  0  0  0  0
    0.9255    0.8732    5.0439 C   0  0  0  0  0  0  0  0  0  0  0  0
    2.0360    0.4377    5.8054 C   0  0  0  0  0  0  0  0  0  0  0  0
    2.8407    1.3543    6.5059 C   0  0  0  0  0  0  0  0  0  0  0  0
    2.5582    2.7312    6.4443 C   0  0  0  0  0  0  0  0  0  0  0  0
    1.4845    3.1877    5.6554 C   0  0  0  0  0  0  0  0  0  0  0  0
    0.6822    2.2649    4.9567 C   0  0  0  0  0  0  0  0  0  0  0  0
    0.3453   -0.4602    1.8934 C   0  0  0  0  0  0  0  0  0  0  0  0
   -0.5707    0.3679    1.6846 O   0  0  0  0  0  0  0  0  0  0  0  0
    2.1796   -1.6511    0.6191 C   0  0  1  0  0  0  0  0  0  0  0  0
    1.0343   -0.8016    0.7627 N   0  0  0  0  0  0  0  0  0  0  0  0
    1.9974   -3.0545    1.0929 C   0  0  0  0  0  0  0  0  0  0  0  0
    2.9079   -3.5231    1.8151 O   0  0  0  0  0  0  0  0  0  0  0  0
    1.0005   -6.6359   -1.1706 C   0  0  1  0  0  0  0  0  0  0  0  0
    1.7870   -5.5629   -1.9845 C   0  0  2  0  0  0  0  0  0  0  0  0
    3.0746   -6.0751   -2.5457 C   0  0  0  0  0  0  0  0  0  0  0  0
    4.3194   -5.7424   -1.9573 C   0  0  0  0  0  0  0  0  0  0  0  0
    5.5145   -6.3061   -2.4425 C   0  0  0  0  0  0  0  0  0  0  0  0
    5.4848   -7.2007   -3.5307 C   0  0  0  0  0  0  0  0  0  0  0  0
    6.6232   -7.7650   -4.0061 O   0  0  0  0  0  0  0  0  0  0  0  0
    4.2561   -7.5199   -4.1358 C   0  0  0  0  0  0  0  0  0  0  0  0
    3.0622   -6.9571   -3.6522 C   0  0  0  0  0  0  0  0  0  0  0  0
    1.8507   -7.2275   -0.0914 C   0  0  0  0  0  0  0  0  0  0  0  0
    2.1713   -6.5754    0.9267 O   0  0  0  0  0  0  0  0  0  0  0  0
    3.3750   -9.1420    0.5026 C   0  0  2  0  0  0  0  0  0  0  0  0
    3.8371  -10.3650   -0.3573 C   0  0  1  0  0  0  0  0  0  0  0  0
    5.2212  -10.8137   -0.1123 C   0  0  0  0  0  0  0  0  0  0  0  0
    6.2667  -10.0227   -0.4227 N   0  0  0  0  0  0  0  0  0  0  0  0
    5.4496  -11.9464    0.3690 O   0  0  0  0  0  0  0  0  0  0  0  0
    2.8502   -9.5197    1.8526 C   0  0  0  0  0  0  0  0  0  0  0  0
    1.6218   -9.7346    1.9767 O   0  0  0  0  0  0  0  0  0  0  0  0
   -0.6450  -13.7283    3.9114 C   0  0  1  0  0  0  0  0  0  0  0  0
   -0.3625  -12.9091    5.0529 N   0  0  0  0  0  0  0  0  0  0  0  0
   -1.5761  -14.8079    4.3226 C   0  0  0  0  0  0  0  0  0  0  0  0
   -2.7353  -14.5448    4.7200 O   0  0  0  0  0  0  0  0  0  0  0  0
   -1.2455   -6.9229    4.0193 C   0  0  0  0  0  0  0  0  0  0  0  0
   -2.1524   -7.1257    5.0861 C   0  0  0  0  0  0  0  0  0  0  0  0
   -3.1982   -8.0582    4.9957 C   0  0  0  0  0  0  0  0  0  0  0  0
   -3.3545   -8.8477    3.8386 C   0  0  0  0  0  0  0  0  0  0  0  0
   -2.3993   -8.7336    2.7889 C   0  0  0  0  0  0  0  0  0  0  0  0
   -1.3648   -7.7709    2.8892 C   0  0  0  0  0  0  0  0  0  0  0  0
   -2.5213   -9.5868    1.6668 C   0  0  0  0  0  0  0  0  0  0  0  0
   -3.6109  -10.4687    1.5411 C   0  0  0  0  0  0  0  0  0  0  0  0
   -4.5703  -10.5493    2.5632 C   0  0  0  0  0  0  0  0  0  0  0  0
   -4.4386   -9.7483    3.7108 C   0  0  0  0  0  0  0  0  0  0  0  0
    3.5124    3.8221    7.3188 Cl  0  0  0  0  0  0  0  0  0  0  0  0
    3.0011   -0.3703   -1.4927 C   0  0  0  0  0  0  0  0  0  0  0  0
    1.9433    0.3070   -2.1467 C   0  0  0  0  0  0  0  0  0  0  0  0
    2.1749    1.5131   -2.8331 C   0  0  0  0  0  0  0  0  0  0  0  0
    3.4758    2.0418   -2.8600 C   0  0  0  0  0  0  0  0  0  0  0  0
    4.4800    1.3847   -2.2267 N   0  0  0  0  0  0  0  0  0  0  0  0
    4.2873    0.2176   -1.5578 C   0  0  0  0  0  0  0  0  0  0  0  0
   -1.3622   -7.3456   -1.1523 C   0  0  0  0  0  0  0  0  0  0  0  0
    8.9673   -5.8107   11.0445 C   0  0  2  0  0  0  0  0  0  0  0  0
    8.6176   -4.8817   12.2384 C   0  0  0  0  0  0  0  0  0  0  0  0
    9.6814   -5.0117    9.9187 C   0  0  0  0  0  0  0  0  0  0  0  0
   -0.8382   -5.2608    0.0463 C   0  0  0  0  0  0  0  0  0  0  0  0
   -0.4959   -3.0666   -1.1194 C   0  0  1  0  0  0  0  0  0  0  0  0
   -1.8438   -3.1700   -1.5721 O   0  0  0  0  0  0  0  0  0  0  0  0
   -0.2752   -3.8749    0.1949 C   0  0  2  0  0  0  0  0  0  0  0  0
   -1.9115   -5.4073    0.6860 O   0  0  0  0  0  0  0  0  0  0  0  0
    5.1089  -10.5604    4.4645 C   0  0  0  0  0  0  0  0  0  0  0  0
    7.5955   -6.7586    3.9687 C   0  0  0  0  0  0  0  0  0  0  0  0
    5.5781   -8.2609    3.4439 C   0  0  1  0  0  0  0  0  0  0  0  0
    4.9535   -9.6823    3.2756 C   0  0  2  0  0  0  0  0  0  0  0  0
    8.0191   -9.0662    2.9562 C   0  0  0  0  0  0  0  0  0  0  0  0
    7.0867   -8.2237    3.8749 C   0  0  1  0  0  0  0  0  0  0  0  0
    5.3350  -11.7835    4.2971 O   0  0  0  0  0  0  0  0  0  0  0  0
    3.3353  -11.3903    6.8512 C   0  0  0  0  0  0  0  0  0  0  0  0
    7.7107   -6.4693   10.5928 N   0  0  1  0  0  0  0  0  0  0  0  0
    6.3815   -9.3412    8.3401 C   0  0  1  0  0  0  0  0  0  0  0  0
    4.9485   -9.9345    8.1879 C   0  0  1  0  0  0  0  0  0  0  0  0
    4.7139  -10.8006    6.9125 C   0  0  2  0  0  0  0  0  0  0  0  0
    6.4547   -8.2965    9.4912 C   0  0  2  0  0  0  0  0  0  0  0  0
    7.8276   -7.5914    9.6261 C   0  0  1  0  0  0  0  0  0  0  0  0
    3.2805  -12.6415    6.9382 O   0  0  0  0  0  0  0  0  0  0  0  0
    0.7395  -12.1210    5.2163 C   0  0  0  0  0  0  0  0  0  0  0  0
    0.8598  -11.3333    6.4746 C   0  0  2  0  0  0  0  0  0  0  0  0
   -0.1757  -10.1780    6.5049 C   0  0  2  0  0  0  0  0  0  0  0  0
    0.6388   -8.9732    6.0316 C   0  0  2  0  0  0  0  0  0  0  0  0
    2.0242   -9.2560    6.6185 C   0  0  1  0  0  0  0  0  0  0  0  0
    1.6244  -12.0500    4.3285 O   0  0  0  0  0  0  0  0  0  0  0  0
    0.3746   -5.8399    3.1585 H   0  0  0  0  0  0  0  0  0  0  0  0
    0.5304   -6.1220    4.8695 H   0  0  0  0  0  0  0  0  0  0  0  0
   -1.0574   -2.2571    2.9685 H   0  0  0  0  0  0  0  0  0  0  0  0
    2.1386   -2.2740   -1.4897 H   0  0  0  0  0  0  0  0  0  0  0  0
    3.7237   -2.2305   -0.7873 H   0  0  0  0  0  0  0  0  0  0  0  0
    1.1543   -4.8166    1.2531 H   0  0  0  0  0  0  0  0  0  0  0  0
    2.0473   -8.9506   -1.0640 H   0  0  0  0  0  0  0  0  0  0  0  0
    2.9816   -9.8268    3.8017 H   0  0  0  0  0  0  0  0  0  0  0  0
    4.8250   -9.0867    5.7848 H   0  0  0  0  0  0  0  0  0  0  0  0
   -1.4018  -13.5141    1.8724 H   0  0  0  0  0  0  0  0  0  0  0  0
   -2.1824  -12.4366    3.0498 H   0  0  0  0  0  0  0  0  0  0  0  0
   -0.5439  -12.0861    2.4737 H   0  0  0  0  0  0  0  0  0  0  0  0
   -0.3082  -16.3433    3.9918 H   0  0  0  0  0  0  0  0  0  0  0  0
   -1.8236  -16.7940    4.5606 H   0  0  0  0  0  0  0  0  0  0  0  0
   -0.6933   -4.0557    8.9901 H   0  0  0  0  0  0  0  0  0  0  0  0
   -2.2082   -4.5422    8.2068 H   0  0  0  0  0  0  0  0  0  0  0  0
   -1.6313   -2.8638    8.0729 H   0  0  0  0  0  0  0  0  0  0  0  0
   -1.5992   -4.2789    3.6922 H   0  0  0  0  0  0  0  0  0  0  0  0
   -2.1949   -3.9222    5.7274 H   0  0  0  0  0  0  0  0  0  0  0  0
    1.6251   -1.1663    3.4170 H   0  0  0  0  0  0  0  0  0  0  0  0
   -0.3125   -0.7662    5.2791 H   0  0  0  0  0  0  0  0  0  0  0  0
   -0.9329    0.3686    4.1242 H   0  0  0  0  0  0  0  0  0  0  0  0
    2.2536   -0.5576    5.8742 H   0  0  0  0  0  0  0  0  0  0  0  0
    3.6268    1.0144    7.0664 H   0  0  0  0  0  0  0  0  0  0  0  0
    1.2803    4.1889    5.5920 H   0  0  0  0  0  0  0  0  0  0  0  0
   -0.0945    2.6154    4.3944 H   0  0  0  0  0  0  0  0  0  0  0  0
    2.9535   -1.1788    1.2327 H   0  0  0  0  0  0  0  0  0  0  0  0
    0.7183   -0.3826   -0.0527 H   0  0  0  0  0  0  0  0  0  0  0  0
    0.9236   -7.4315   -1.9239 H   0  0  0  0  0  0  0  0  0  0  0  0
    1.9969   -4.7048   -1.3573 H   0  0  0  0  0  0  0  0  0  0  0  0
    1.1604   -5.2256   -2.8137 H   0  0  0  0  0  0  0  0  0  0  0  0
    4.3628   -5.1018   -1.1600 H   0  0  0  0  0  0  0  0  0  0  0  0
    6.4037   -6.0703   -1.9955 H   0  0  0  0  0  0  0  0  0  0  0  0
    7.3569   -7.3387   -3.5174 H   0  0  0  0  0  0  0  0  0  0  0  0
    4.2265   -8.1665   -4.9269 H   0  0  0  0  0  0  0  0  0  0  0  0
    2.1797   -7.2041   -4.1085 H   0  0  0  0  0  0  0  0  0  0  0  0
    4.2057   -8.4401    0.6114 H   0  0  0  0  0  0  0  0  0  0  0  0
    3.1419  -11.1964   -0.2059 H   0  0  0  0  0  0  0  0  0  0  0  0
    3.7975  -10.1149   -1.4237 H   0  0  0  0  0  0  0  0  0  0  0  0
    7.1720  -10.3326   -0.2594 H   0  0  0  0  0  0  0  0  0  0  0  0
    6.1190   -9.1448   -0.8127 H   0  0  0  0  0  0  0  0  0  0  0  0
    0.2872  -14.1849    3.5583 H   0  0  0  0  0  0  0  0  0  0  0  0
   -1.0182  -12.9037    5.7710 H   0  0  0  0  0  0  0  0  0  0  0  0
   -2.0712   -6.5904    5.9481 H   0  0  0  0  0  0  0  0  0  0  0  0
   -3.8492   -8.1501    5.7812 H   0  0  0  0  0  0  0  0  0  0  0  0
   -0.6922   -7.6828    2.1241 H   0  0  0  0  0  0  0  0  0  0  0  0
   -1.8194   -9.5769    0.9277 H   0  0  0  0  0  0  0  0  0  0  0  0
   -3.7050  -11.0556    0.7082 H   0  0  0  0  0  0  0  0  0  0  0  0
   -5.3578  -11.1954    2.4746 H   0  0  0  0  0  0  0  0  0  0  0  0
   -5.1410   -9.8296    4.4511 H   0  0  0  0  0  0  0  0  0  0  0  0
    0.9966   -0.0799   -2.1424 H   0  0  0  0  0  0  0  0  0  0  0  0
    1.4100    1.9977   -3.3083 H   0  0  0  0  0  0  0  0  0  0  0  0
    3.6703    2.9166   -3.3527 H   0  0  0  0  0  0  0  0  0  0  0  0
    5.0933   -0.2288   -1.1155 H   0  0  0  0  0  0  0  0  0  0  0  0
   -1.0454   -8.3328   -0.8182 H   0  0  0  0  0  0  0  0  0  0  0  0
   -2.3808   -7.1909   -0.7914 H   0  0  0  0  0  0  0  0  0  0  0  0
   -1.4225   -7.3666   -2.2436 H   0  0  0  0  0  0  0  0  0  0  0  0
    9.6545   -6.5758   11.4184 H   0  0  0  0  0  0  0  0  0  0  0  0
    9.5237   -4.4375   12.6574 H   0  0  0  0  0  0  0  0  0  0  0  0
    8.1243   -5.4496   13.0303 H   0  0  0  0  0  0  0  0  0  0  0  0
    7.9497   -4.0772   11.9213 H   0  0  0  0  0  0  0  0  0  0  0  0
   10.6007   -4.4789   10.4180 H   0  0  0  0  0  0  0  0  0  0  0  0
    9.9415   -5.7447    9.0975 H   0  0  0  0  0  0  0  0  0  0  0  0
    8.9097   -4.3259    9.4559 H   0  0  0  0  0  0  0  0  0  0  0  0
    0.1434   -3.3983   -1.9265 H   0  0  0  0  0  0  0  0  0  0  0  0
   -0.3207   -2.0077   -0.9606 H   0  0  0  0  0  0  0  0  0  0  0  0
   -1.8982   -2.5615   -2.3387 H   0  0  0  0  0  0  0  0  0  0  0  0
   -0.8768   -3.3313    0.9315 H   0  0  0  0  0  0  0  0  0  0  0  0
    6.9709   -6.1799    4.6534 H   0  0  0  0  0  0  0  0  0  0  0  0
    7.5769   -6.2818    2.9857 H   0  0  0  0  0  0  0  0  0  0  0  0
    8.6197   -6.7361    4.3491 H   0  0  0  0  0  0  0  0  0  0  0  0
    5.4766   -7.7332    2.4933 H   0  0  0  0  0  0  0  0  0  0  0  0
    4.9870   -7.7056    4.1797 H   0  0  0  0  0  0  0  0  0  0  0  0
    5.4505  -10.1667    2.4395 H   0  0  0  0  0  0  0  0  0  0  0  0
    7.8938   -8.7797    1.9092 H   0  0  0  0  0  0  0  0  0  0  0  0
    7.7990  -10.1309    3.0596 H   0  0  0  0  0  0  0  0  0  0  0  0
    9.0657   -8.9226    3.2361 H   0  0  0  0  0  0  0  0  0  0  0  0
    7.1675   -8.6422    4.8824 H   0  0  0  0  0  0  0  0  0  0  0  0
    7.2770   -6.8616   11.4314 H   0  0  0  0  0  0  0  0  0  0  0  0
    7.0928  -10.1502    8.5303 H   0  0  0  0  0  0  0  0  0  0  0  0
    6.6696   -8.8472    7.4093 H   0  0  0  0  0  0  0  0  0  0  0  0
    4.7363  -10.5490    9.0691 H   0  0  0  0  0  0  0  0  0  0  0  0
    4.2493   -9.1007    8.1895 H   0  0  0  0  0  0  0  0  0  0  0  0
    5.4615  -11.6023    6.9486 H   0  0  0  0  0  0  0  0  0  0  0  0
    6.2142   -8.7871   10.4389 H   0  0  0  0  0  0  0  0  0  0  0  0
    5.6986   -7.5275    9.3090 H   0  0  0  0  0  0  0  0  0  0  0  0
    8.1236   -7.2010    8.6501 H   0  0  0  0  0  0  0  0  0  0  0  0
    8.5757   -8.3149    9.9623 H   0  0  0  0  0  0  0  0  0  0  0  0
    0.6702  -11.9985    7.3253 H   0  0  0  0  0  0  0  0  0  0  0  0
   -0.5229  -10.0044    7.5288 H   0  0  0  0  0  0  0  0  0  0  0  0
   -1.0486  -10.3385    5.8644 H   0  0  0  0  0  0  0  0  0  0  0  0
    0.2309   -8.0314    6.4045 H   0  0  0  0  0  0  0  0  0  0  0  0
    0.6866   -8.9524    4.9371 H   0  0  0  0  0  0  0  0  0  0  0  0
    2.0618   -8.8613    7.6385 H   0  0  0  0  0  0  0  0  0  0  0  0
    2.7733   -8.7602    6.0009 H   0  0  0  0  0  0  0  0  0  0  0  0
  1 16  1  0  0  0  0 
 17  3  1  0  0  0  0 
 27 30  1  0  0  0  0 
 31  5  1  0  0  0  0 
 76  6  1  0  0  0  0 
 42  7  1  0  0  0  0 
 49  8  1  0  0  0  0 
 81  9  1  0  0  0  0 
 88 10  1  0  0  0  0 
 96 52  1  0  0  0  0 
 53 12  1  0  0  0  0 
  1 13  2  0  0  0  0 
  1 14  1  0  0  0  0 
  2 15  1  0  0  0  0 
 15 16  1  0  0  0  0 
 15 17  1  0  0  0  0 
 17 18  2  0  0  0  0 
 19  3  1  0  0  0  0 
 19 20  1  0  0  0  0 
 20 21  1  0  0  0  0 
 21 22  2  0  0  0  0 
 22 23  1  0  0  0  0 
 23 24  2  0  0  0  0 
 24 25  1  0  0  0  0 
 25 26  2  0  0  0  0 
 21 26  1  0  0  0  0 
 19 27  1  0  0  0  0 
 27 28  2  0  0  0  0 
  4 29  1  0  0  0  0 
 29 30  1  0  0  0  0 
 29 31  1  0  0  0  0 
 31 32  2  0  0  0  0 
 33  6  1  0  0  0  0 
 33 34  1  0  0  0  0 
 34 35  1  0  0  0  0 
 35 36  2  0  0  0  0 
 36 37  1  0  0  0  0 
 37 38  2  0  0  0  0 
 38 39  1  0  0  0  0 
 38 40  1  0  0  0  0 
 40 41  2  0  0  0  0 
 35 41  1  0  0  0  0 
 33 42  1  0  0  0  0 
 42 43  2  0  0  0  0 
 44  7  1  0  0  0  0 
 44 45  1  0  0  0  0 
 45 46  1  0  0  0  0 
 46 47  1  0  0  0  0 
 46 48  2  0  0  0  0 
 44 49  1  0  0  0  0 
 49 50  2  0  0  0  0 
 11 51  1  0  0  0  0 
 51 52  1  0  0  0  0 
 51 53  1  0  0  0  0 
 53 54  2  0  0  0  0 
  2 55  1  0  0  0  0 
 56 57  1  0  0  0  0 
 57 58  2  0  0  0  0 
 58 59  1  0  0  0  0 
 59 60  2  0  0  0  0 
 55 56  2  0  0  0  0 
 55 60  1  0  0  0  0 
 61 62  2  0  0  0  0 
 62 63  1  0  0  0  0 
 63 64  2  0  0  0  0 
 58 64  1  0  0  0  0 
 59 61  1  0  0  0  0 
 24 65  1  0  0  0  0 
  4 66  1  0  0  0  0 
 67 68  1  0  0  0  0 
 68 69  2  0  0  0  0 
 69 70  1  0  0  0  0 
 70 71  2  0  0  0  0 
 66 67  2  0  0  0  0 
 66 71  1  0  0  0  0 
  6 72  1  0  0  0  0 
 89 73  1  0  0  0  0 
 73 74  1  0  0  0  0 
 73 75  1  0  0  0  0 
 79  5  1  0  0  0  0 
 79 77  1  0  0  0  0 
 77 78  1  0  0  0  0 
 79 76  1  0  0  0  0 
 76 80  2  0  0  0  0 
 85 86  1  0  0  0  0 
 86 82  1  0  0  0  0 
 86 83  1  0  0  0  0 
 83 84  1  0  0  0  0 
 84  8  1  0  0  0  0 
 84 81  1  0  0  0  0 
 81 87  2  0  0  0  0 
 89 94  1  0  0  0  0 
 94 93  1  0  0  0  0 
 93 90  1  0  0  0  0 
 90 91  1  0  0  0  0 
 91 92  1  0  0  0  0 
 92  9  1  0  0  0  0 
 92 88  1  0  0  0  0 
 88 95  2  0  0  0  0 
101 96  2  0  0  0  0 
 97 96  1  0  0  0  0 
 97 98  1  0  0  0  0 
 98 99  1  0  0  0  0 
 99100  1  0  0  0  0 
100 10  1  0  0  0  0 
 97 10  1  0  0  0  0 
  2102  1  0  0  0  0 
  2103  1  0  0  0  0 
  3104  1  0  0  0  0 
  4105  1  0  0  0  0 
  4106  1  0  0  0  0 
  5107  1  0  0  0  0 
  7108  1  0  0  0  0 
  8109  1  0  0  0  0 
  9110  1  0  0  0  0 
 11111  1  0  0  0  0 
 11112  1  0  0  0  0 
 11113  1  0  0  0  0 
 12114  1  0  0  0  0 
 12115  1  0  0  0  0 
 14116  1  0  0  0  0 
 14117  1  0  0  0  0 
 14118  1  0  0  0  0 
 15119  1  0  0  0  0 
 16120  1  0  0  0  0 
 19121  1  0  0  0  0 
 20122  1  0  0  0  0 
 20123  1  0  0  0  0 
 22124  1  0  0  0  0 
 23125  1  0  0  0  0 
 25126  1  0  0  0  0 
 26127  1  0  0  0  0 
 29128  1  0  0  0  0 
 30129  1  0  0  0  0 
 33130  1  0  0  0  0 
 34131  1  0  0  0  0 
 34132  1  0  0  0  0 
 36133  1  0  0  0  0 
 37134  1  0  0  0  0 
 39135  1  0  0  0  0 
 40136  1  0  0  0  0 
 41137  1  0  0  0  0 
 44138  1  0  0  0  0 
 45139  1  0  0  0  0 
 45140  1  0  0  0  0 
 47141  1  0  0  0  0 
 47142  1  0  0  0  0 
 51143  1  0  0  0  0 
 52144  1  0  0  0  0 
 56145  1  0  0  0  0 
 57146  1  0  0  0  0 
 60147  1  0  0  0  0 
 61148  1  0  0  0  0 
 62149  1  0  0  0  0 
 63150  1  0  0  0  0 
 64151  1  0  0  0  0 
 67152  1  0  0  0  0 
 68153  1  0  0  0  0 
 69154  1  0  0  0  0 
 71155  1  0  0  0  0 
 72156  1  0  0  0  0 
 72157  1  0  0  0  0 
 72158  1  0  0  0  0 
 73159  1  0  0  0  0 
 74160  1  0  0  0  0 
 74161  1  0  0  0  0 
 74162  1  0  0  0  0 
 75163  1  0  0  0  0 
 75164  1  0  0  0  0 
 75165  1  0  0  0  0 
 77166  1  0  0  0  0 
 77167  1  0  0  0  0 
 78168  1  0  0  0  0 
 79169  1  0  0  0  0 
 82170  1  0  0  0  0 
 82171  1  0  0  0  0 
 82172  1  0  0  0  0 
 83173  1  0  0  0  0 
 83174  1  0  0  0  0 
 84175  1  0  0  0  0 
 85176  1  0  0  0  0 
 85177  1  0  0  0  0 
 85178  1  0  0  0  0 
 86179  1  0  0  0  0 
 89180  1  0  0  0  0 
 90181  1  0  0  0  0 
 90182  1  0  0  0  0 
 91183  1  0  0  0  0 
 91184  1  0  0  0  0 
 92185  1  0  0  0  0 
 93186  1  0  0  0  0 
 93187  1  0  0  0  0 
 94188  1  0  0  0  0 
 94189  1  0  0  0  0 
 97190  1  0  0  0  0 
 98191  1  0  0  0  0 
 98192  1  0  0  0  0 
 99193  1  0  0  0  0 
 99194  1  0  0  0  0 
100195  1  0  0  0  0 
100196  1  0  0  0  0 
M  END
> <cdk:Title>
abarelix

> <Conformer>
3

> <SuperDrugID>
SD000014

$$$$
abarelix
  CDK     0628171801

196201  0  0  0  0  0  0  0  0999 V2000
   -3.7762   -1.4997    4.0406 C   0  0  0  0  0  0  0  0  0  0  0  0
   -2.5624   -4.8256    4.2871 C   0  0  1  0  0  0  0  0  0  0  0  0
   -0.4708   -1.9115    2.9740 N   0  0  0  0  0  0  0  0  0  0  0  0
    4.4081   -0.3871    0.1828 C   0  0  2  0  0  0  0  0  0  0  0  0
    3.4130    2.5781    1.3291 N   0  0  0  0  0  0  0  0  0  0  0  0
    5.5676    4.5494    2.6840 N   0  0  0  0  0  0  0  0  0  0  0  0
    6.3608    6.2608   -0.2938 N   0  0  0  0  0  0  0  0  0  0  0  0
    3.9664    8.9070   -1.0361 N   0  0  0  0  0  0  0  0  0  0  0  0
    1.2083    9.4366   -1.1547 N   0  0  0  0  0  0  0  0  0  0  0  0
    1.3077    9.4792    1.7717 N   0  0  0  0  0  0  0  0  0  0  0  0
    6.6424   10.6650    3.9282 C   0  0  0  0  0  0  0  0  0  0  0  0
    6.2589   13.8259    4.2363 N   0  0  0  0  0  0  0  0  0  0  0  0
   -4.1899   -1.4430    2.8585 O   0  0  0  0  0  0  0  0  0  0  0  0
   -4.2959   -0.5570    5.0446 C   0  0  0  0  0  0  0  0  0  0  0  0
   -2.2313   -3.4388    3.6460 C   0  0  1  0  0  0  0  0  0  0  0  0
   -2.8551   -2.4156    4.4432 N   0  0  0  0  0  0  0  0  0  0  0  0
   -0.7950   -3.0673    3.6198 C   0  0  0  0  0  0  0  0  0  0  0  0
    0.0595   -3.7019    4.2831 O   0  0  0  0  0  0  0  0  0  0  0  0
    0.6196   -1.0433    3.3082 C   0  0  2  0  0  0  0  0  0  0  0  0
    0.0129   -0.0883    4.3860 C   0  0  2  0  0  0  0  0  0  0  0  0
    0.9261    0.8852    5.0359 C   0  0  0  0  0  0  0  0  0  0  0  0
    2.0184    0.4338    5.8128 C   0  0  0  0  0  0  0  0  0  0  0  0
    2.8275    1.3475    6.5126 C   0  0  0  0  0  0  0  0  0  0  0  0
    2.5598    2.7275    6.4378 C   0  0  0  0  0  0  0  0  0  0  0  0
    1.4784    3.1905    5.6624 C   0  0  0  0  0  0  0  0  0  0  0  0
    0.6702    2.2752    4.9643 C   0  0  0  0  0  0  0  0  0  0  0  0
    1.0934   -0.3361    2.0886 C   0  0  0  0  0  0  0  0  0  0  0  0
    0.2704    0.3171    1.4027 O   0  0  0  0  0  0  0  0  0  0  0  0
    2.9745    0.1401    0.5093 C   0  0  1  0  0  0  0  0  0  0  0  0
    2.4010   -0.4264    1.7003 N   0  0  0  0  0  0  0  0  0  0  0  0
    2.9519    1.6352    0.4492 C   0  0  0  0  0  0  0  0  0  0  0  0
    2.4733    2.1471   -0.5902 O   0  0  0  0  0  0  0  0  0  0  0  0
    6.2499    4.4611    1.3767 C   0  0  1  0  0  0  0  0  0  0  0  0
    6.6106    3.0873    0.7178 C   0  0  2  0  0  0  0  0  0  0  0  0
    7.2706    3.2424   -0.6132 C   0  0  0  0  0  0  0  0  0  0  0  0
    6.5116    3.1397   -1.8035 C   0  0  0  0  0  0  0  0  0  0  0  0
    7.0818    3.4533   -3.0494 C   0  0  0  0  0  0  0  0  0  0  0  0
    8.4263    3.8604   -3.1275 C   0  0  0  0  0  0  0  0  0  0  0  0
    8.9800    4.2105   -4.3150 O   0  0  0  0  0  0  0  0  0  0  0  0
    9.2073    3.9048   -1.9577 C   0  0  0  0  0  0  0  0  0  0  0  0
    8.6366    3.5932   -0.7096 C   0  0  0  0  0  0  0  0  0  0  0  0
    5.5845    5.3893    0.4188 C   0  0  0  0  0  0  0  0  0  0  0  0
    4.3406    5.3623    0.2654 O   0  0  0  0  0  0  0  0  0  0  0  0
    5.9045    7.2218   -1.2536 C   0  0  2  0  0  0  0  0  0  0  0  0
    7.1400    7.8538   -1.9650 C   0  0  1  0  0  0  0  0  0  0  0  0
    6.8098    8.4692   -3.2686 C   0  0  0  0  0  0  0  0  0  0  0  0
    6.4041    7.7172   -4.3102 N   0  0  0  0  0  0  0  0  0  0  0  0
    6.9127    9.7051   -3.4366 O   0  0  0  0  0  0  0  0  0  0  0  0
    5.0697    8.2563   -0.5819 C   0  0  0  0  0  0  0  0  0  0  0  0
    5.3963    8.6083    0.5763 O   0  0  0  0  0  0  0  0  0  0  0  0
    5.4637   11.6025    3.5687 C   0  0  1  0  0  0  0  0  0  0  0  0
    4.2280   10.8745    3.6573 N   0  0  0  0  0  0  0  0  0  0  0  0
    5.4381   12.7847    4.4629 C   0  0  0  0  0  0  0  0  0  0  0  0
    4.6739   12.8492    5.4539 O   0  0  0  0  0  0  0  0  0  0  0  0
   -4.0251   -4.9829    4.5417 C   0  0  0  0  0  0  0  0  0  0  0  0
   -4.5388   -4.9629    5.8594 C   0  0  0  0  0  0  0  0  0  0  0  0
   -5.9241   -4.9880    6.0935 C   0  0  0  0  0  0  0  0  0  0  0  0
   -6.8303   -5.0453    5.0126 C   0  0  0  0  0  0  0  0  0  0  0  0
   -6.3267   -5.0967    3.6807 C   0  0  0  0  0  0  0  0  0  0  0  0
   -4.9317   -5.0714    3.4609 C   0  0  0  0  0  0  0  0  0  0  0  0
   -7.2320   -5.1608    2.5971 C   0  0  0  0  0  0  0  0  0  0  0  0
   -8.6190   -5.1632    2.8284 C   0  0  0  0  0  0  0  0  0  0  0  0
   -9.1155   -5.1039    4.1421 C   0  0  0  0  0  0  0  0  0  0  0  0
   -8.2268   -5.0478    5.2305 C   0  0  0  0  0  0  0  0  0  0  0  0
    3.5436    3.8210    7.2758 Cl  0  0  0  0  0  0  0  0  0  0  0  0
    4.5322   -1.8690    0.1275 C   0  0  0  0  0  0  0  0  0  0  0  0
    4.9445   -2.6117    1.2595 C   0  0  0  0  0  0  0  0  0  0  0  0
    5.0876   -4.0089    1.1867 C   0  0  0  0  0  0  0  0  0  0  0  0
    4.8128   -4.6577   -0.0289 C   0  0  0  0  0  0  0  0  0  0  0  0
    4.4147   -3.9329   -1.1049 N   0  0  0  0  0  0  0  0  0  0  0  0
    4.2671   -2.5836   -1.0642 C   0  0  0  0  0  0  0  0  0  0  0  0
    6.0885    5.5938    3.5699 C   0  0  0  0  0  0  0  0  0  0  0  0
   -6.2183    7.9804   -4.0711 C   0  0  2  0  0  0  0  0  0  0  0  0
   -7.6105    7.6589   -3.4690 C   0  0  0  0  0  0  0  0  0  0  0  0
   -5.7564    6.8588   -5.0430 C   0  0  0  0  0  0  0  0  0  0  0  0
    4.4197    3.8491    3.1024 C   0  0  0  0  0  0  0  0  0  0  0  0
    4.8349    1.3885    3.1993 C   0  0  1  0  0  0  0  0  0  0  0  0
    5.1887    1.5531    4.5712 O   0  0  0  0  0  0  0  0  0  0  0  0
    3.8831    2.5116    2.6849 C   0  0  2  0  0  0  0  0  0  0  0  0
    3.7147    4.3864    3.9916 O   0  0  0  0  0  0  0  0  0  0  0  0
    2.1662    9.8678   -2.0214 C   0  0  0  0  0  0  0  0  0  0  0  0
    1.2194    6.1548   -4.2987 C   0  0  0  0  0  0  0  0  0  0  0  0
    2.8012    7.5667   -2.8668 C   0  0  1  0  0  0  0  0  0  0  0  0
    3.2917    8.9425   -2.3065 C   0  0  2  0  0  0  0  0  0  0  0  0
    2.1514    8.3413   -5.2565 C   0  0  0  0  0  0  0  0  0  0  0  0
    1.6914    7.5982   -3.9705 C   0  0  1  0  0  0  0  0  0  0  0  0
    2.1650   11.0287   -2.4949 O   0  0  0  0  0  0  0  0  0  0  0  0
    0.7880   10.4462    0.9093 C   0  0  0  0  0  0  0  0  0  0  0  0
   -5.2859    8.1487   -2.9300 N   0  0  1  0  0  0  0  0  0  0  0  0
   -1.9095    9.6809   -1.8701 C   0  0  1  0  0  0  0  0  0  0  0  0
   -1.1606    9.5367   -0.5141 C   0  0  1  0  0  0  0  0  0  0  0  0
    0.2360   10.2205   -0.4672 C   0  0  2  0  0  0  0  0  0  0  0  0
   -3.2516    8.9036   -1.8392 C   0  0  2  0  0  0  0  0  0  0  0  0
   -4.0380    8.9074   -3.1686 C   0  0  1  0  0  0  0  0  0  0  0  0
    0.8494   11.6470    1.2713 O   0  0  0  0  0  0  0  0  0  0  0  0
    3.3810   10.5789    2.6291 C   0  0  0  0  0  0  0  0  0  0  0  0
    2.1442    9.7938    2.9148 C   0  0  2  0  0  0  0  0  0  0  0  0
    2.5137    8.4222    3.5414 C   0  0  2  0  0  0  0  0  0  0  0  0
    1.4358    7.4720    3.0221 C   0  0  2  0  0  0  0  0  0  0  0  0
    1.0918    8.0662    1.6501 C   0  0  1  0  0  0  0  0  0  0  0  0
    3.6474   10.9443    1.4594 O   0  0  0  0  0  0  0  0  0  0  0  0
   -2.2195   -5.6281    3.6293 H   0  0  0  0  0  0  0  0  0  0  0  0
   -2.0103   -4.9263    5.2262 H   0  0  0  0  0  0  0  0  0  0  0  0
   -1.1224   -1.5597    2.3478 H   0  0  0  0  0  0  0  0  0  0  0  0
    5.1284   -0.0090    0.9015 H   0  0  0  0  0  0  0  0  0  0  0  0
    4.7226    0.0238   -0.7825 H   0  0  0  0  0  0  0  0  0  0  0  0
    3.3397    3.4830    0.9894 H   0  0  0  0  0  0  0  0  0  0  0  0
    7.3182    6.2313   -0.1320 H   0  0  0  0  0  0  0  0  0  0  0  0
    3.5771    9.4919   -0.3669 H   0  0  0  0  0  0  0  0  0  0  0  0
    1.2382    8.4964   -0.9192 H   0  0  0  0  0  0  0  0  0  0  0  0
    7.5944   11.1880    3.8132 H   0  0  0  0  0  0  0  0  0  0  0  0
    6.5583   10.3130    4.9586 H   0  0  0  0  0  0  0  0  0  0  0  0
    6.6499    9.7995    3.2627 H   0  0  0  0  0  0  0  0  0  0  0  0
    6.8684   13.8072    3.4818 H   0  0  0  0  0  0  0  0  0  0  0  0
    6.2399   14.5970    4.8243 H   0  0  0  0  0  0  0  0  0  0  0  0
   -5.0579    0.0992    4.6188 H   0  0  0  0  0  0  0  0  0  0  0  0
   -3.4792    0.0583    5.4280 H   0  0  0  0  0  0  0  0  0  0  0  0
   -4.7398   -1.1134    5.8729 H   0  0  0  0  0  0  0  0  0  0  0  0
   -2.6021   -3.4369    2.6158 H   0  0  0  0  0  0  0  0  0  0  0  0
   -2.5989   -2.3874    5.3800 H   0  0  0  0  0  0  0  0  0  0  0  0
    1.4470   -1.6133    3.7428 H   0  0  0  0  0  0  0  0  0  0  0  0
   -0.3980   -0.6928    5.2014 H   0  0  0  0  0  0  0  0  0  0  0  0
   -0.8398    0.4339    3.9391 H   0  0  0  0  0  0  0  0  0  0  0  0
    2.2212   -0.5673    5.8888 H   0  0  0  0  0  0  0  0  0  0  0  0
    3.6064    0.9979    7.0757 H   0  0  0  0  0  0  0  0  0  0  0  0
    1.2783    4.1928    5.5982 H   0  0  0  0  0  0  0  0  0  0  0  0
   -0.1118    2.6339    4.4121 H   0  0  0  0  0  0  0  0  0  0  0  0
    2.3509   -0.2293   -0.3129 H   0  0  0  0  0  0  0  0  0  0  0  0
    2.9881   -0.9519    2.2643 H   0  0  0  0  0  0  0  0  0  0  0  0
    7.2580    4.8724    1.5174 H   0  0  0  0  0  0  0  0  0  0  0  0
    5.7280    2.4807    0.5812 H   0  0  0  0  0  0  0  0  0  0  0  0
    7.2780    2.5355    1.3842 H   0  0  0  0  0  0  0  0  0  0  0  0
    5.5270    2.8630   -1.7677 H   0  0  0  0  0  0  0  0  0  0  0  0
    6.5117    3.3937   -3.8961 H   0  0  0  0  0  0  0  0  0  0  0  0
    8.2482    4.2184   -4.9696 H   0  0  0  0  0  0  0  0  0  0  0  0
   10.1919    4.1743   -2.0104 H   0  0  0  0  0  0  0  0  0  0  0  0
    9.2182    3.6426    0.1318 H   0  0  0  0  0  0  0  0  0  0  0  0
    5.3316    6.6580   -1.9827 H   0  0  0  0  0  0  0  0  0  0  0  0
    7.5996    8.5998   -1.3078 H   0  0  0  0  0  0  0  0  0  0  0  0
    7.8987    7.0869   -2.1498 H   0  0  0  0  0  0  0  0  0  0  0  0
    6.1972    8.1378   -5.1597 H   0  0  0  0  0  0  0  0  0  0  0  0
    6.3105    6.7556   -4.2152 H   0  0  0  0  0  0  0  0  0  0  0  0
    5.6305   11.9589    2.5471 H   0  0  0  0  0  0  0  0  0  0  0  0
    3.9722   10.5582    4.5386 H   0  0  0  0  0  0  0  0  0  0  0  0
   -3.9065   -4.9067    6.6624 H   0  0  0  0  0  0  0  0  0  0  0  0
   -6.2643   -4.9519    7.0584 H   0  0  0  0  0  0  0  0  0  0  0  0
   -4.5684   -5.0991    2.5035 H   0  0  0  0  0  0  0  0  0  0  0  0
   -6.8897   -5.2027    1.6333 H   0  0  0  0  0  0  0  0  0  0  0  0
   -9.2672   -5.2080    2.0393 H   0  0  0  0  0  0  0  0  0  0  0  0
  -10.1246   -5.1012    4.3057 H   0  0  0  0  0  0  0  0  0  0  0  0
   -8.6077   -5.0097    6.1796 H   0  0  0  0  0  0  0  0  0  0  0  0
    5.1467   -2.1378    2.1436 H   0  0  0  0  0  0  0  0  0  0  0  0
    5.3883   -4.5424    2.0053 H   0  0  0  0  0  0  0  0  0  0  0  0
    4.9097   -5.6715   -0.1054 H   0  0  0  0  0  0  0  0  0  0  0  0
    3.9669   -2.0985   -1.9122 H   0  0  0  0  0  0  0  0  0  0  0  0
    5.9070    6.5745    3.1299 H   0  0  0  0  0  0  0  0  0  0  0  0
    5.6652    5.5960    4.5753 H   0  0  0  0  0  0  0  0  0  0  0  0
    7.1614    5.4772    3.7187 H   0  0  0  0  0  0  0  0  0  0  0  0
   -6.3038    8.9217   -4.6237 H   0  0  0  0  0  0  0  0  0  0  0  0
   -8.3582    7.5674   -4.2585 H   0  0  0  0  0  0  0  0  0  0  0  0
   -7.9243    8.4609   -2.7968 H   0  0  0  0  0  0  0  0  0  0  0  0
   -7.5805    6.7248   -2.9028 H   0  0  0  0  0  0  0  0  0  0  0  0
   -6.6164    6.7261   -5.8304 H   0  0  0  0  0  0  0  0  0  0  0  0
   -4.7564    7.1681   -5.4725 H   0  0  0  0  0  0  0  0  0  0  0  0
   -5.5228    5.9479   -4.4129 H   0  0  0  0  0  0  0  0  0  0  0  0
    5.7626    1.3540    2.6480 H   0  0  0  0  0  0  0  0  0  0  0  0
    4.3575    0.4157    3.1338 H   0  0  0  0  0  0  0  0  0  0  0  0
    5.7596    0.7825    4.7876 H   0  0  0  0  0  0  0  0  0  0  0  0
    2.9540    2.3219    3.2295 H   0  0  0  0  0  0  0  0  0  0  0  0
    0.8788    5.6505   -3.3917 H   0  0  0  0  0  0  0  0  0  0  0  0
    2.0333    5.5726   -4.7326 H   0  0  0  0  0  0  0  0  0  0  0  0
    0.3890    6.1749   -5.0066 H   0  0  0  0  0  0  0  0  0  0  0  0
    3.6533    7.0490   -3.3062 H   0  0  0  0  0  0  0  0  0  0  0  0
    2.4478    6.9639   -2.0252 H   0  0  0  0  0  0  0  0  0  0  0  0
    3.9664    9.4036   -3.0326 H   0  0  0  0  0  0  0  0  0  0  0  0
    3.0078    7.8385   -5.7083 H   0  0  0  0  0  0  0  0  0  0  0  0
    2.4335    9.3699   -5.0257 H   0  0  0  0  0  0  0  0  0  0  0  0
    1.3397    8.3723   -5.9873 H   0  0  0  0  0  0  0  0  0  0  0  0
    0.8165    8.1269   -3.5825 H   0  0  0  0  0  0  0  0  0  0  0  0
   -5.7917    8.6753   -2.2134 H   0  0  0  0  0  0  0  0  0  0  0  0
   -2.1093   10.7373   -2.0670 H   0  0  0  0  0  0  0  0  0  0  0  0
   -1.2851    9.2940   -2.6788 H   0  0  0  0  0  0  0  0  0  0  0  0
   -1.7895    9.9596    0.2749 H   0  0  0  0  0  0  0  0  0  0  0  0
   -1.0526    8.4693   -0.3242 H   0  0  0  0  0  0  0  0  0  0  0  0
    0.1258   11.1929   -0.9605 H   0  0  0  0  0  0  0  0  0  0  0  0
   -3.8846    9.3353   -1.0583 H   0  0  0  0  0  0  0  0  0  0  0  0
   -3.0515    7.8617   -1.5732 H   0  0  0  0  0  0  0  0  0  0  0  0
   -3.4385    8.4342   -3.9491 H   0  0  0  0  0  0  0  0  0  0  0  0
   -4.2715    9.9333   -3.4649 H   0  0  0  0  0  0  0  0  0  0  0  0
    1.5373   10.3574    3.6315 H   0  0  0  0  0  0  0  0  0  0  0  0
    2.5160    8.4621    4.6344 H   0  0  0  0  0  0  0  0  0  0  0  0
    3.4913    8.0654    3.1975 H   0  0  0  0  0  0  0  0  0  0  0  0
    0.5610    7.5002    3.6797 H   0  0  0  0  0  0  0  0  0  0  0  0
    1.7960    6.4435    2.9438 H   0  0  0  0  0  0  0  0  0  0  0  0
    0.0545    7.8178    1.4419 H   0  0  0  0  0  0  0  0  0  0  0  0
    1.7410    7.6403    0.8811 H   0  0  0  0  0  0  0  0  0  0  0  0
  1 16  1  0  0  0  0 
 17  3  1  0  0  0  0 
 27 30  1  0  0  0  0 
 31  5  1  0  0  0  0 
 76  6  1  0  0  0  0 
 42  7  1  0  0  0  0 
 49  8  1  0  0  0  0 
 81  9  1  0  0  0  0 
 88 10  1  0  0  0  0 
 96 52  1  0  0  0  0 
 53 12  1  0  0  0  0 
  1 13  2  0  0  0  0 
  1 14  1  0  0  0  0 
  2 15  1  0  0  0  0 
 15 16  1  0  0  0  0 
 15 17  1  0  0  0  0 
 17 18  2  0  0  0  0 
 19  3  1  0  0  0  0 
 19 20  1  0  0  0  0 
 20 21  1  0  0  0  0 
 21 22  2  0  0  0  0 
 22 23  1  0  0  0  0 
 23 24  2  0  0  0  0 
 24 25  1  0  0  0  0 
 25 26  2  0  0  0  0 
 21 26  1  0  0  0  0 
 19 27  1  0  0  0  0 
 27 28  2  0  0  0  0 
  4 29  1  0  0  0  0 
 29 30  1  0  0  0  0 
 29 31  1  0  0  0  0 
 31 32  2  0  0  0  0 
 33  6  1  0  0  0  0 
 33 34  1  0  0  0  0 
 34 35  1  0  0  0  0 
 35 36  2  0  0  0  0 
 36 37  1  0  0  0  0 
 37 38  2  0  0  0  0 
 38 39  1  0  0  0  0 
 38 40  1  0  0  0  0 
 40 41  2  0  0  0  0 
 35 41  1  0  0  0  0 
 33 42  1  0  0  0  0 
 42 43  2  0  0  0  0 
 44  7  1  0  0  0  0 
 44 45  1  0  0  0  0 
 45 46  1  0  0  0  0 
 46 47  1  0  0  0  0 
 46 48  2  0  0  0  0 
 44 49  1  0  0  0  0 
 49 50  2  0  0  0  0 
 11 51  1  0  0  0  0 
 51 52  1  0  0  0  0 
 51 53  1  0  0  0  0 
 53 54  2  0  0  0  0 
  2 55  1  0  0  0  0 
 56 57  1  0  0  0  0 
 57 58  2  0  0  0  0 
 58 59  1  0  0  0  0 
 59 60  2  0  0  0  0 
 55 56  2  0  0  0  0 
 55 60  1  0  0  0  0 
 61 62  2  0  0  0  0 
 62 63  1  0  0  0  0 
 63 64  2  0  0  0  0 
 58 64  1  0  0  0  0 
 59 61  1  0  0  0  0 
 24 65  1  0  0  0  0 
  4 66  1  0  0  0  0 
 67 68  1  0  0  0  0 
 68 69  2  0  0  0  0 
 69 70  1  0  0  0  0 
 70 71  2  0  0  0  0 
 66 67  2  0  0  0  0 
 66 71  1  0  0  0  0 
  6 72  1  0  0  0  0 
 89 73  1  0  0  0  0 
 73 74  1  0  0  0  0 
 73 75  1  0  0  0  0 
 79  5  1  0  0  0  0 
 79 77  1  0  0  0  0 
 77 78  1  0  0  0  0 
 79 76  1  0  0  0  0 
 76 80  2  0  0  0  0 
 85 86  1  0  0  0  0 
 86 82  1  0  0  0  0 
 86 83  1  0  0  0  0 
 83 84  1  0  0  0  0 
 84  8  1  0  0  0  0 
 84 81  1  0  0  0  0 
 81 87  2  0  0  0  0 
 89 94  1  0  0  0  0 
 94 93  1  0  0  0  0 
 93 90  1  0  0  0  0 
 90 91  1  0  0  0  0 
 91 92  1  0  0  0  0 
 92  9  1  0  0  0  0 
 92 88  1  0  0  0  0 
 88 95  2  0  0  0  0 
101 96  2  0  0  0  0 
 97 96  1  0  0  0  0 
 97 98  1  0  0  0  0 
 98 99  1  0  0  0  0 
 99100  1  0  0  0  0 
100 10  1  0  0  0  0 
 97 10  1  0  0  0  0 
  2102  1  0  0  0  0 
  2103  1  0  0  0  0 
  3104  1  0  0  0  0 
  4105  1  0  0  0  0 
  4106  1  0  0  0  0 
  5107  1  0  0  0  0 
  7108  1  0  0  0  0 
  8109  1  0  0  0  0 
  9110  1  0  0  0  0 
 11111  1  0  0  0  0 
 11112  1  0  0  0  0 
 11113  1  0  0  0  0 
 12114  1  0  0  0  0 
 12115  1  0  0  0  0 
 14116  1  0  0  0  0 
 14117  1  0  0  0  0 
 14118  1  0  0  0  0 
 15119  1  0  0  0  0 
 16120  1  0  0  0  0 
 19121  1  0  0  0  0 
 20122  1  0  0  0  0 
 20123  1  0  0  0  0 
 22124  1  0  0  0  0 
 23125  1  0  0  0  0 
 25126  1  0  0  0  0 
 26127  1  0  0  0  0 
 29128  1  0  0  0  0 
 30129  1  0  0  0  0 
 33130  1  0  0  0  0 
 34131  1  0  0  0  0 
 34132  1  0  0  0  0 
 36133  1  0  0  0  0 
 37134  1  0  0  0  0 
 39135  1  0  0  0  0 
 40136  1  0  0  0  0 
 41137  1  0  0  0  0 
 44138  1  0  0  0  0 
 45139  1  0  0  0  0 
 45140  1  0  0  0  0 
 47141  1  0  0  0  0 
 47142  1  0  0  0  0 
 51143  1  0  0  0  0 
 52144  1  0  0  0  0 
 56145  1  0  0  0  0 
 57146  1  0  0  0  0 
 60147  1  0  0  0  0 
 61148  1  0  0  0  0 
 62149  1  0  0  0  0 
 63150  1  0  0  0  0 
 64151  1  0  0  0  0 
 67152  1  0  0  0  0 
 68153  1  0  0  0  0 
 69154  1  0  0  0  0 
 71155  1  0  0  0  0 
 72156  1  0  0  0  0 
 72157  1  0  0  0  0 
 72158  1  0  0  0  0 
 73159  1  0  0  0  0 
 74160  1  0  0  0  0 
 74161  1  0  0  0  0 
 74162  1  0  0  0  0 
 75163  1  0  0  0  0 
 75164  1  0  0  0  0 
 75165  1  0  0  0  0 
 77166  1  0  0  0  0 
 77167  1  0  0  0  0 
 78168  1  0  0  0  0 
 79169  1  0  0  0  0 
 82170  1  0  0  0  0 
 82171  1  0  0  0  0 
 82172  1  0  0  0  0 
 83173  1  0  0  0  0 
 83174  1  0  0  0  0 
 84175  1  0  0  0  0 
 85176  1  0  0  0  0 
 85177  1  0  0  0  0 
 85178  1  0  0  0  0 
 86179  1  0  0  0  0 
 89180  1  0  0  0  0 
 90181  1  0  0  0  0 
 90182  1  0  0  0  0 
 91183  1  0  0  0  0 
 91184  1  0  0  0  0 
 92185  1  0  0  0  0 
 93186  1  0  0  0  0 
 93187  1  0  0  0  0 
 94188  1  0  0  0  0 
 94189  1  0  0  0  0 
 97190  1  0  0  0  0 
 98191  1  0  0  0  0 
 98192  1  0  0  0  0 
 99193  1  0  0  0  0 
 99194  1  0  0  0  0 
100195  1  0  0  0  0 
100196  1  0  0  0  0 
M  END
> <cdk:Title>
abarelix

> <Conformer>
4

> <SuperDrugID>
SD000014

$$$$
abarelix
  CDK     0628171801

196201  0  0  0  0  0  0  0  0999 V2000
   -3.8473   -1.5201    4.1523 C   0  0  0  0  0  0  0  0  0  0  0  0
   -2.6117   -4.7953    4.2954 C   0  0  1  0  0  0  0  0  0  0  0  0
   -0.5046   -1.8913    2.9590 N   0  0  0  0  0  0  0  0  0  0  0  0
    4.3746   -0.4460    0.1619 C   0  0  2  0  0  0  0  0  0  0  0  0
    3.4258    2.4985    1.3478 N   0  0  0  0  0  0  0  0  0  0  0  0
    5.6348    4.3650    2.7477 N   0  0  0  0  0  0  0  0  0  0  0  0
    6.4822    6.1468   -0.1444 N   0  0  0  0  0  0  0  0  0  0  0  0
    4.2963    8.9338   -1.0124 N   0  0  0  0  0  0  0  0  0  0  0  0
    1.4890    9.4450   -1.0905 N   0  0  0  0  0  0  0  0  0  0  0  0
    1.6018    9.4145    1.8339 N   0  0  0  0  0  0  0  0  0  0  0  0
    6.9405   10.4451    3.9681 C   0  0  0  0  0  0  0  0  0  0  0  0
    6.6966   13.6022    4.3118 N   0  0  0  0  0  0  0  0  0  0  0  0
   -4.3856   -1.5200    3.0203 O   0  0  0  0  0  0  0  0  0  0  0  0
   -4.2832   -0.5540    5.1736 C   0  0  0  0  0  0  0  0  0  0  0  0
   -2.2728   -3.4095    3.6561 C   0  0  1  0  0  0  0  0  0  0  0  0
   -2.8599   -2.3920    4.4827 N   0  0  0  0  0  0  0  0  0  0  0  0
   -0.8333   -3.0487    3.6041 C   0  0  0  0  0  0  0  0  0  0  0  0
    0.0223   -3.6965    4.2541 O   0  0  0  0  0  0  0  0  0  0  0  0
    0.5980   -1.0355    3.2948 C   0  0  2  0  0  0  0  0  0  0  0  0
    0.0175   -0.0953    4.4018 C   0  0  2  0  0  0  0  0  0  0  0  0
    0.9309    0.8848    5.0372 C   0  0  0  0  0  0  0  0  0  0  0  0
    2.0221    0.4330    5.8126 C   0  0  0  0  0  0  0  0  0  0  0  0
    2.8255    1.3471    6.5161 C   0  0  0  0  0  0  0  0  0  0  0  0
    2.5582    2.7260    6.4405 C   0  0  0  0  0  0  0  0  0  0  0  0
    1.4756    3.1887    5.6684 C   0  0  0  0  0  0  0  0  0  0  0  0
    0.6734    2.2745    4.9623 C   0  0  0  0  0  0  0  0  0  0  0  0
    1.0759   -0.3212    2.0810 C   0  0  0  0  0  0  0  0  0  0  0  0
    0.2748    0.3997    1.4379 O   0  0  0  0  0  0  0  0  0  0  0  0
    2.9441    0.0963    0.4727 C   0  0  1  0  0  0  0  0  0  0  0  0
    2.3685   -0.4676    1.6621 N   0  0  0  0  0  0  0  0  0  0  0  0
    2.9531    1.5898    0.4427 C   0  0  0  0  0  0  0  0  0  0  0  0
    2.4946    2.1399   -0.5852 O   0  0  0  0  0  0  0  0  0  0  0  0
    6.3054    4.2944    1.4372 C   0  0  1  0  0  0  0  0  0  0  0  0
    6.6120    2.9362    0.7230 C   0  0  2  0  0  0  0  0  0  0  0  0
    7.2607    3.1099   -0.6125 C   0  0  0  0  0  0  0  0  0  0  0  0
    6.4944    3.0777   -1.8042 C   0  0  0  0  0  0  0  0  0  0  0  0
    7.0927    3.3590   -3.0458 C   0  0  0  0  0  0  0  0  0  0  0  0
    8.4672    3.6560   -3.1223 C   0  0  0  0  0  0  0  0  0  0  0  0
    9.0469    3.9400   -4.3153 O   0  0  0  0  0  0  0  0  0  0  0  0
    9.2405    3.6676   -1.9457 C   0  0  0  0  0  0  0  0  0  0  0  0
    8.6419    3.3949   -0.7024 C   0  0  0  0  0  0  0  0  0  0  0  0
    5.6682    5.2623    0.5023 C   0  0  0  0  0  0  0  0  0  0  0  0
    4.4355    5.2167    0.2743 O   0  0  0  0  0  0  0  0  0  0  0  0
    6.0872    7.0850   -1.1513 C   0  0  2  0  0  0  0  0  0  0  0  0
    7.3659    7.5796   -1.8893 C   0  0  1  0  0  0  0  0  0  0  0  0
    7.0777    8.2177   -3.1894 C   0  0  0  0  0  0  0  0  0  0  0  0
    6.6590    7.4810   -4.2324 N   0  0  0  0  0  0  0  0  0  0  0  0
    7.2402    9.4481   -3.3513 O   0  0  0  0  0  0  0  0  0  0  0  0
    5.3483    8.2171   -0.5302 C   0  0  0  0  0  0  0  0  0  0  0  0
    5.7439    8.6240    0.5880 O   0  0  0  0  0  0  0  0  0  0  0  0
    5.7928   11.4266    3.6260 C   0  0  1  0  0  0  0  0  0  0  0  0
    4.5425   10.7267    3.7264 N   0  0  0  0  0  0  0  0  0  0  0  0
    5.8098   12.6111    4.5182 C   0  0  0  0  0  0  0  0  0  0  0  0
    5.0148   12.7310    5.4797 O   0  0  0  0  0  0  0  0  0  0  0  0
   -4.0746   -4.9291    4.5665 C   0  0  0  0  0  0  0  0  0  0  0  0
   -4.5770   -4.8854    5.8888 C   0  0  0  0  0  0  0  0  0  0  0  0
   -5.9602   -4.8883    6.1361 C   0  0  0  0  0  0  0  0  0  0  0  0
   -6.8777   -4.9513    5.0652 C   0  0  0  0  0  0  0  0  0  0  0  0
   -6.3867   -5.0138    3.7297 C   0  0  0  0  0  0  0  0  0  0  0  0
   -4.9948   -5.0135    3.4967 C   0  0  0  0  0  0  0  0  0  0  0  0
   -7.3018   -5.0606    2.6536 C   0  0  0  0  0  0  0  0  0  0  0  0
   -8.6866   -5.0518    2.8973 C   0  0  0  0  0  0  0  0  0  0  0  0
   -9.1710   -4.9998    4.2146 C   0  0  0  0  0  0  0  0  0  0  0  0
   -8.2728   -4.9482    5.2954 C   0  0  0  0  0  0  0  0  0  0  0  0
    3.5475    3.8245    7.2635 Cl  0  0  0  0  0  0  0  0  0  0  0  0
    4.4945   -1.9277    0.0949 C   0  0  0  0  0  0  0  0  0  0  0  0
    4.8533   -2.6934    1.2315 C   0  0  0  0  0  0  0  0  0  0  0  0
    4.9996   -4.0892    1.1355 C   0  0  0  0  0  0  0  0  0  0  0  0
    4.7867   -4.7130   -0.1058 C   0  0  0  0  0  0  0  0  0  0  0  0
    4.4437   -3.9653   -1.1842 N   0  0  0  0  0  0  0  0  0  0  0  0
    4.2899   -2.6183   -1.1218 C   0  0  0  0  0  0  0  0  0  0  0  0
    6.2027    5.3488    3.6714 C   0  0  0  0  0  0  0  0  0  0  0  0
   -6.1273    8.5336   -3.8830 C   0  0  2  0  0  0  0  0  0  0  0  0
   -6.6606    9.8244   -4.5589 C   0  0  0  0  0  0  0  0  0  0  0  0
   -7.2915    7.6317   -3.3930 C   0  0  0  0  0  0  0  0  0  0  0  0
    4.4501    3.7146    3.1374 C   0  0  0  0  0  0  0  0  0  0  0  0
    4.8050    1.2490    3.2028 C   0  0  1  0  0  0  0  0  0  0  0  0
    5.1508    1.4131    4.5752 O   0  0  0  0  0  0  0  0  0  0  0  0
    3.8753    2.3967    2.7058 C   0  0  2  0  0  0  0  0  0  0  0  0
    3.7501    4.2815    4.0114 O   0  0  0  0  0  0  0  0  0  0  0  0
    2.4579    9.8730   -1.9497 C   0  0  0  0  0  0  0  0  0  0  0  0
    1.4599    6.1727   -4.2385 C   0  0  0  0  0  0  0  0  0  0  0  0
    3.0655    7.5681   -2.8107 C   0  0  1  0  0  0  0  0  0  0  0  0
    3.5747    8.9415   -2.2606 C   0  0  2  0  0  0  0  0  0  0  0  0
    2.4581    8.3084   -5.2216 C   0  0  0  0  0  0  0  0  0  0  0  0
    1.9632    7.6088   -3.9239 C   0  0  1  0  0  0  0  0  0  0  0  0
    2.4722   11.0430   -2.3977 O   0  0  0  0  0  0  0  0  0  0  0  0
    1.0800   10.4137    1.0112 C   0  0  0  0  0  0  0  0  0  0  0  0
   -5.2561    8.8372   -2.7192 N   0  0  1  0  0  0  0  0  0  0  0  0
   -1.6588    9.8589   -1.7509 C   0  0  1  0  0  0  0  0  0  0  0  0
   -0.8870    9.6230   -0.4219 C   0  0  1  0  0  0  0  0  0  0  0  0
    0.5406   10.2418   -0.3776 C   0  0  2  0  0  0  0  0  0  0  0  0
   -3.1019    9.2920   -1.6624 C   0  0  2  0  0  0  0  0  0  0  0  0
   -3.8933    9.3525   -2.9883 C   0  0  1  0  0  0  0  0  0  0  0  0
    1.1179   11.5966    1.4317 O   0  0  0  0  0  0  0  0  0  0  0  0
    3.6737   10.4752    2.7071 C   0  0  0  0  0  0  0  0  0  0  0  0
    2.4383    9.6885    2.9865 C   0  0  2  0  0  0  0  0  0  0  0  0
    2.8052    8.2948    3.5657 C   0  0  2  0  0  0  0  0  0  0  0  0
    1.7166    7.3728    3.0165 C   0  0  2  0  0  0  0  0  0  0  0  0
    1.3988    8.0060    1.6549 C   0  0  1  0  0  0  0  0  0  0  0  0
    3.9234   10.8782    1.5460 O   0  0  0  0  0  0  0  0  0  0  0  0
   -2.2864   -5.5992    3.6286 H   0  0  0  0  0  0  0  0  0  0  0  0
   -2.0500   -4.9055    5.2288 H   0  0  0  0  0  0  0  0  0  0  0  0
   -1.1627   -1.5335    2.3426 H   0  0  0  0  0  0  0  0  0  0  0  0
    5.0857   -0.0823    0.8943 H   0  0  0  0  0  0  0  0  0  0  0  0
    4.7104   -0.0267   -0.7921 H   0  0  0  0  0  0  0  0  0  0  0  0
    3.3862    3.4105    1.0252 H   0  0  0  0  0  0  0  0  0  0  0  0
    7.4231    6.1277    0.0988 H   0  0  0  0  0  0  0  0  0  0  0  0
    4.0106    9.6258   -0.3965 H   0  0  0  0  0  0  0  0  0  0  0  0
    1.4889    8.4996   -0.8827 H   0  0  0  0  0  0  0  0  0  0  0  0
    7.9096   10.9403    3.8734 H   0  0  0  0  0  0  0  0  0  0  0  0
    6.8354   10.0677    4.9881 H   0  0  0  0  0  0  0  0  0  0  0  0
    6.9237    9.5967    3.2794 H   0  0  0  0  0  0  0  0  0  0  0  0
    7.3254   13.5446    3.5736 H   0  0  0  0  0  0  0  0  0  0  0  0
    6.7039   14.3772    4.8965 H   0  0  0  0  0  0  0  0  0  0  0  0
   -5.0099    0.1516    4.7649 H   0  0  0  0  0  0  0  0  0  0  0  0
   -3.4228    0.0077    5.5437 H   0  0  0  0  0  0  0  0  0  0  0  0
   -4.7439   -1.0887    6.0057 H   0  0  0  0  0  0  0  0  0  0  0  0
   -2.6656   -3.3922    2.6341 H   0  0  0  0  0  0  0  0  0  0  0  0
   -2.5130   -2.3288    5.3857 H   0  0  0  0  0  0  0  0  0  0  0  0
    1.4202   -1.6254    3.7112 H   0  0  0  0  0  0  0  0  0  0  0  0
   -0.3588   -0.7119    5.2238 H   0  0  0  0  0  0  0  0  0  0  0  0
   -0.8569    0.4201    3.9954 H   0  0  0  0  0  0  0  0  0  0  0  0
    2.2313   -0.5656    5.8855 H   0  0  0  0  0  0  0  0  0  0  0  0
    3.6039    1.0003    7.0794 H   0  0  0  0  0  0  0  0  0  0  0  0
    1.2699    4.1884    5.6068 H   0  0  0  0  0  0  0  0  0  0  0  0
   -0.1032    2.6353    4.4018 H   0  0  0  0  0  0  0  0  0  0  0  0
    2.3170   -0.2497   -0.3600 H   0  0  0  0  0  0  0  0  0  0  0  0
    2.9444   -1.0268    2.2070 H   0  0  0  0  0  0  0  0  0  0  0  0
    7.3303    4.6568    1.5932 H   0  0  0  0  0  0  0  0  0  0  0  0
    5.7139    2.3566    0.5791 H   0  0  0  0  0  0  0  0  0  0  0  0
    7.2773    2.3454    1.3576 H   0  0  0  0  0  0  0  0  0  0  0  0
    5.4899    2.8734   -1.7732 H   0  0  0  0  0  0  0  0  0  0  0  0
    6.5207    3.3572   -3.8923 H   0  0  0  0  0  0  0  0  0  0  0  0
    8.3033    4.0109   -4.9508 H   0  0  0  0  0  0  0  0  0  0  0  0
   10.2375    3.8850   -1.9883 H   0  0  0  0  0  0  0  0  0  0  0  0
    9.2182    3.4186    0.1430 H   0  0  0  0  0  0  0  0  0  0  0  0
    5.4675    6.5287   -1.8489 H   0  0  0  0  0  0  0  0  0  0  0  0
    7.9122    8.2770   -1.2457 H   0  0  0  0  0  0  0  0  0  0  0  0
    8.0338    6.7349   -2.0792 H   0  0  0  0  0  0  0  0  0  0  0  0
    6.4727    7.9040   -5.0828 H   0  0  0  0  0  0  0  0  0  0  0  0
    6.5474    6.5233   -4.1371 H   0  0  0  0  0  0  0  0  0  0  0  0
    5.9587   11.7805    2.6030 H   0  0  0  0  0  0  0  0  0  0  0  0
    4.2986   10.3906    4.6042 H   0  0  0  0  0  0  0  0  0  0  0  0
   -3.9359   -4.8301    6.6849 H   0  0  0  0  0  0  0  0  0  0  0  0
   -6.2904   -4.8348    7.1044 H   0  0  0  0  0  0  0  0  0  0  0  0
   -4.6410   -5.0566    2.5369 H   0  0  0  0  0  0  0  0  0  0  0  0
   -6.9687   -5.0989    1.6874 H   0  0  0  0  0  0  0  0  0  0  0  0
   -9.3410   -5.0849    2.1134 H   0  0  0  0  0  0  0  0  0  0  0  0
  -10.1787   -5.0001    4.3880 H   0  0  0  0  0  0  0  0  0  0  0  0
   -8.6443   -4.9075    6.2482 H   0  0  0  0  0  0  0  0  0  0  0  0
    5.0139   -2.2407    2.1351 H   0  0  0  0  0  0  0  0  0  0  0  0
    5.2575   -4.6444    1.9550 H   0  0  0  0  0  0  0  0  0  0  0  0
    4.8853   -5.7246   -0.2042 H   0  0  0  0  0  0  0  0  0  0  0  0
    4.0303   -2.1127   -1.9711 H   0  0  0  0  0  0  0  0  0  0  0  0
    6.0097    6.3525    3.2884 H   0  0  0  0  0  0  0  0  0  0  0  0
    5.8132    5.2861    4.6920 H   0  0  0  0  0  0  0  0  0  0  0  0
    7.2827    5.2170    3.7694 H   0  0  0  0  0  0  0  0  0  0  0  0
   -5.5601    7.9570   -4.6213 H   0  0  0  0  0  0  0  0  0  0  0  0
   -7.3219    9.5717   -5.3923 H   0  0  0  0  0  0  0  0  0  0  0  0
   -5.8315   10.4166   -4.9512 H   0  0  0  0  0  0  0  0  0  0  0  0
   -7.2163   10.4310   -3.8386 H   0  0  0  0  0  0  0  0  0  0  0  0
   -7.9163    7.3464   -4.3438 H   0  0  0  0  0  0  0  0  0  0  0  0
   -6.8240    6.7585   -2.8423 H   0  0  0  0  0  0  0  0  0  0  0  0
   -7.8523    8.2036   -2.5922 H   0  0  0  0  0  0  0  0  0  0  0  0
    5.7355    1.2060    2.6512 H   0  0  0  0  0  0  0  0  0  0  0  0
    4.3109    0.2828    3.1352 H   0  0  0  0  0  0  0  0  0  0  0  0
    5.6867    0.6241    4.8013 H   0  0  0  0  0  0  0  0  0  0  0  0
    2.9388    2.2274    3.2468 H   0  0  0  0  0  0  0  0  0  0  0  0
    1.0599    5.7038   -3.3359 H   0  0  0  0  0  0  0  0  0  0  0  0
    2.2742    5.5528   -4.6209 H   0  0  0  0  0  0  0  0  0  0  0  0
    0.6642    6.2023   -4.9864 H   0  0  0  0  0  0  0  0  0  0  0  0
    3.9114    7.0409   -3.2480 H   0  0  0  0  0  0  0  0  0  0  0  0
    2.7045    6.9737   -1.9661 H   0  0  0  0  0  0  0  0  0  0  0  0
    4.2269    9.3972   -3.0109 H   0  0  0  0  0  0  0  0  0  0  0  0
    3.3079    7.7709   -5.6480 H   0  0  0  0  0  0  0  0  0  0  0  0
    2.7636    9.3354   -5.0159 H   0  0  0  0  0  0  0  0  0  0  0  0
    1.6576    8.3385   -5.9641 H   0  0  0  0  0  0  0  0  0  0  0  0
    1.0947    8.1652   -3.5580 H   0  0  0  0  0  0  0  0  0  0  0  0
   -5.7399    9.5193   -2.1298 H   0  0  0  0  0  0  0  0  0  0  0  0
   -1.7118   10.9307   -1.9601 H   0  0  0  0  0  0  0  0  0  0  0  0
   -1.1203    9.3778   -2.5714 H   0  0  0  0  0  0  0  0  0  0  0  0
   -1.4751   10.0469    0.3975 H   0  0  0  0  0  0  0  0  0  0  0  0
   -0.8314    8.5447   -0.2710 H   0  0  0  0  0  0  0  0  0  0  0  0
    0.4699   11.2331   -0.8413 H   0  0  0  0  0  0  0  0  0  0  0  0
   -3.6498    9.8572   -0.9017 H   0  0  0  0  0  0  0  0  0  0  0  0
   -3.0585    8.2465   -1.3410 H   0  0  0  0  0  0  0  0  0  0  0  0
   -3.3917    8.7337   -3.7379 H   0  0  0  0  0  0  0  0  0  0  0  0
   -3.9410   10.3839   -3.3468 H   0  0  0  0  0  0  0  0  0  0  0  0
    1.8394   10.2329    3.7249 H   0  0  0  0  0  0  0  0  0  0  0  0
    2.8128    8.2961    4.6596 H   0  0  0  0  0  0  0  0  0  0  0  0
    3.7793    7.9441    3.2044 H   0  0  0  0  0  0  0  0  0  0  0  0
    0.8358    7.4025    3.6667 H   0  0  0  0  0  0  0  0  0  0  0  0
    2.0598    6.3400    2.9170 H   0  0  0  0  0  0  0  0  0  0  0  0
    0.3705    7.7563    1.4044 H   0  0  0  0  0  0  0  0  0  0  0  0
    2.0767    7.6143    0.8920 H   0  0  0  0  0  0  0  0  0  0  0  0
  1 16  1  0  0  0  0 
 17  3  1  0  0  0  0 
 27 30  1  0  0  0  0 
 31  5  1  0  0  0  0 
 76  6  1  0  0  0  0 
 42  7  1  0  0  0  0 
 49  8  1  0  0  0  0 
 81  9  1  0  0  0  0 
 88 10  1  0  0  0  0 
 96 52  1  0  0  0  0 
 53 12  1  0  0  0  0 
  1 13  2  0  0  0  0 
  1 14  1  0  0  0  0 
  2 15  1  0  0  0  0 
 15 16  1  0  0  0  0 
 15 17  1  0  0  0  0 
 17 18  2  0  0  0  0 
 19  3  1  0  0  0  0 
 19 20  1  0  0  0  0 
 20 21  1  0  0  0  0 
 21 22  2  0  0  0  0 
 22 23  1  0  0  0  0 
 23 24  2  0  0  0  0 
 24 25  1  0  0  0  0 
 25 26  2  0  0  0  0 
 21 26  1  0  0  0  0 
 19 27  1  0  0  0  0 
 27 28  2  0  0  0  0 
  4 29  1  0  0  0  0 
 29 30  1  0  0  0  0 
 29 31  1  0  0  0  0 
 31 32  2  0  0  0  0 
 33  6  1  0  0  0  0 
 33 34  1  0  0  0  0 
 34 35  1  0  0  0  0 
 35 36  2  0  0  0  0 
 36 37  1  0  0  0  0 
 37 38  2  0  0  0  0 
 38 39  1  0  0  0  0 
 38 40  1  0  0  0  0 
 40 41  2  0  0  0  0 
 35 41  1  0  0  0  0 
 33 42  1  0  0  0  0 
 42 43  2  0  0  0  0 
 44  7  1  0  0  0  0 
 44 45  1  0  0  0  0 
 45 46  1  0  0  0  0 
 46 47  1  0  0  0  0 
 46 48  2  0  0  0  0 
 44 49  1  0  0  0  0 
 49 50  2  0  0  0  0 
 11 51  1  0  0  0  0 
 51 52  1  0  0  0  0 
 51 53  1  0  0  0  0 
 53 54  2  0  0  0  0 
  2 55  1  0  0  0  0 
 56 57  1  0  0  0  0 
 57 58  2  0  0  0  0 
 58 59  1  0  0  0  0 
 59 60  2  0  0  0  0 
 55 56  2  0  0  0  0 
 55 60  1  0  0  0  0 
 61 62  2  0  0  0  0 
 62 63  1  0  0  0  0 
 63 64  2  0  0  0  0 
 58 64  1  0  0  0  0 
 59 61  1  0  0  0  0 
 24 65  1  0  0  0  0 
  4 66  1  0  0  0  0 
 67 68  1  0  0  0  0 
 68 69  2  0  0  0  0 
 69 70  1  0  0  0  0 
 70 71  2  0  0  0  0 
 66 67  2  0  0  0  0 
 66 71  1  0  0  0  0 
  6 72  1  0  0  0  0 
 89 73  1  0  0  0  0 
 73 74  1  0  0  0  0 
 73 75  1  0  0  0  0 
 79  5  1  0  0  0  0 
 79 77  1  0  0  0  0 
 77 78  1  0  0  0  0 
 79 76  1  0  0  0  0 
 76 80  2  0  0  0  0 
 85 86  1  0  0  0  0 
 86 82  1  0  0  0  0 
 86 83  1  0  0  0  0 
 83 84  1  0  0  0  0 
 84  8  1  0  0  0  0 
 84 81  1  0  0  0  0 
 81 87  2  0  0  0  0 
 89 94  1  0  0  0  0 
 94 93  1  0  0  0  0 
 93 90  1  0  0  0  0 
 90 91  1  0  0  0  0 
 91 92  1  0  0  0  0 
 92  9  1  0  0  0  0 
 92 88  1  0  0  0  0 
 88 95  2  0  0  0  0 
101 96  2  0  0  0  0 
 97 96  1  0  0  0  0 
 97 98  1  0  0  0  0 
 98 99  1  0  0  0  0 
 99100  1  0  0  0  0 
100 10  1  0  0  0  0 
 97 10  1  0  0  0  0 
  2102  1  0  0  0  0 
  2103  1  0  0  0  0 
  3104  1  0  0  0  0 
  4105  1  0  0  0  0 
  4106  1  0  0  0  0 
  5107  1  0  0  0  0 
  7108  1  0  0  0  0 
  8109  1  0  0  0  0 
  9110  1  0  0  0  0 
 11111  1  0  0  0  0 
 11112  1  0  0  0  0 
 11113  1  0  0  0  0 
 12114  1  0  0  0  0 
 12115  1  0  0  0  0 
 14116  1  0  0  0  0 
 14117  1  0  0  0  0 
 14118  1  0  0  0  0 
 15119  1  0  0  0  0 
 16120  1  0  0  0  0 
 19121  1  0  0  0  0 
 20122  1  0  0  0  0 
 20123  1  0  0  0  0 
 22124  1  0  0  0  0 
 23125  1  0  0  0  0 
 25126  1  0  0  0  0 
 26127  1  0  0  0  0 
 29128  1  0  0  0  0 
 30129  1  0  0  0  0 
 33130  1  0  0  0  0 
 34131  1  0  0  0  0 
 34132  1  0  0  0  0 
 36133  1  0  0  0  0 
 37134  1  0  0  0  0 
 39135  1  0  0  0  0 
 40136  1  0  0  0  0 
 41137  1  0  0  0  0 
 44138  1  0  0  0  0 
 45139  1  0  0  0  0 
 45140  1  0  0  0  0 
 47141  1  0  0  0  0 
 47142  1  0  0  0  0 
 51143  1  0  0  0  0 
 52144  1  0  0  0  0 
 56145  1  0  0  0  0 
 57146  1  0  0  0  0 
 60147  1  0  0  0  0 
 61148  1  0  0  0  0 
 62149  1  0  0  0  0 
 63150  1  0  0  0  0 
 64151  1  0  0  0  0 
 67152  1  0  0  0  0 
 68153  1  0  0  0  0 
 69154  1  0  0  0  0 
 71155  1  0  0  0  0 
 72156  1  0  0  0  0 
 72157  1  0  0  0  0 
 72158  1  0  0  0  0 
 73159  1  0  0  0  0 
 74160  1  0  0  0  0 
 74161  1  0  0  0  0 
 74162  1  0  0  0  0 
 75163  1  0  0  0  0 
 75164  1  0  0  0  0 
 75165  1  0  0  0  0 
 77166  1  0  0  0  0 
 77167  1  0  0  0  0 
 78168  1  0  0  0  0 
 79169  1  0  0  0  0 
 82170  1  0  0  0  0 
 82171  1  0  0  0  0 
 82172  1  0  0  0  0 
 83173  1  0  0  0  0 
 83174  1  0  0  0  0 
 84175  1  0  0  0  0 
 85176  1  0  0  0  0 
 85177  1  0  0  0  0 
 85178  1  0  0  0  0 
 86179  1  0  0  0  0 
 89180  1  0  0  0  0 
 90181  1  0  0  0  0 
 90182  1  0  0  0  0 
 91183  1  0  0  0  0 
 91184  1  0  0  0  0 
 92185  1  0  0  0  0 
 93186  1  0  0  0  0 
 93187  1  0  0  0  0 
 94188  1  0  0  0  0 
 94189  1  0  0  0  0 
 97190  1  0  0  0  0 
 98191  1  0  0  0  0 
 98192  1  0  0  0  0 
 99193  1  0  0  0  0 
 99194  1  0  0  0  0 
100195  1  0  0  0  0 
100196  1  0  0  0  0 
M  END
> <cdk:Title>
abarelix

> <Conformer>
5

> <SuperDrugID>
SD000014

$$$$
abarelix
  CDK     0628171801

196201  0  0  0  0  0  0  0  0999 V2000
    0.1496   -2.9480    0.4934 C   0  0  0  0  0  0  0  0  0  0  0  0
   -3.0108   -1.4298   -0.2968 C   0  0  1  0  0  0  0  0  0  0  0  0
   -1.2546   -1.3857    3.1129 N   0  0  0  0  0  0  0  0  0  0  0  0
   -0.1251   -4.3785    6.8007 C   0  0  2  0  0  0  0  0  0  0  0  0
   -3.5021   -4.6545    6.8431 N   0  0  0  0  0  0  0  0  0  0  0  0
   -3.9155   -7.9321    6.2850 N   0  0  0  0  0  0  0  0  0  0  0  0
   -3.2606   -9.3812    9.5285 N   0  0  0  0  0  0  0  0  0  0  0  0
   -6.0958   -9.6628   11.8298 N   0  0  0  0  0  0  0  0  0  0  0  0
   -8.3334   -8.1461   12.4591 N   0  0  0  0  0  0  0  0  0  0  0  0
   -9.4071   -8.9782    9.8515 N   0  0  0  0  0  0  0  0  0  0  0  0
   -6.8847  -13.8488    7.9252 C   0  0  0  0  0  0  0  0  0  0  0  0
   -9.0271  -15.9859    9.0275 N   0  0  0  0  0  0  0  0  0  0  0  0
   -0.1498   -4.0332    1.0451 O   0  0  0  0  0  0  0  0  0  0  0  0
    1.4971   -2.7729   -0.0727 C   0  0  0  0  0  0  0  0  0  0  0  0
   -2.0957   -1.9137    0.8779 C   0  0  1  0  0  0  0  0  0  0  0  0
   -0.7325   -1.9141    0.4136 N   0  0  0  0  0  0  0  0  0  0  0  0
   -2.1178   -1.0678    2.1025 C   0  0  0  0  0  0  0  0  0  0  0  0
   -2.8534   -0.0548    2.1807 O   0  0  0  0  0  0  0  0  0  0  0  0
   -0.8447   -0.5337    4.1934 C   0  0  2  0  0  0  0  0  0  0  0  0
    0.6455   -0.1740    3.8795 C   0  0  2  0  0  0  0  0  0  0  0  0
    1.2673    0.8101    4.8053 C   0  0  0  0  0  0  0  0  0  0  0  0
    0.8535    2.1604    4.7885 C   0  0  0  0  0  0  0  0  0  0  0  0
    1.4412    3.1070    5.6459 C   0  0  0  0  0  0  0  0  0  0  0  0
    2.4566    2.7119    6.5381 C   0  0  0  0  0  0  0  0  0  0  0  0
    2.8823    1.3698    6.5637 C   0  0  0  0  0  0  0  0  0  0  0  0
    2.2884    0.4274    5.7045 C   0  0  0  0  0  0  0  0  0  0  0  0
   -0.9878   -1.1863    5.5238 C   0  0  0  0  0  0  0  0  0  0  0  0
   -0.7722   -0.4774    6.5361 O   0  0  0  0  0  0  0  0  0  0  0  0
   -1.2267   -3.2811    6.8738 C   0  0  1  0  0  0  0  0  0  0  0  0
   -1.3038   -2.5112    5.6597 N   0  0  0  0  0  0  0  0  0  0  0  0
   -2.5622   -3.7825    7.3463 C   0  0  0  0  0  0  0  0  0  0  0  0
   -2.9365   -3.3539    8.4626 O   0  0  0  0  0  0  0  0  0  0  0  0
   -2.9604   -8.2311    7.3751 C   0  0  1  0  0  0  0  0  0  0  0  0
   -1.7048   -7.3394    7.6193 C   0  0  2  0  0  0  0  0  0  0  0  0
   -0.8312   -7.7317    8.7702 C   0  0  0  0  0  0  0  0  0  0  0  0
   -0.8728   -7.0089    9.9889 C   0  0  0  0  0  0  0  0  0  0  0  0
   -0.1114   -7.4187   11.0979 C   0  0  0  0  0  0  0  0  0  0  0  0
    0.7177   -8.5525   11.0058 C   0  0  0  0  0  0  0  0  0  0  0  0
    1.4314   -8.9773   12.0790 O   0  0  0  0  0  0  0  0  0  0  0  0
    0.8007   -9.2551    9.7889 C   0  0  0  0  0  0  0  0  0  0  0  0
    0.0313   -8.8493    8.6816 C   0  0  0  0  0  0  0  0  0  0  0  0
   -3.6886   -8.4107    8.6634 C   0  0  0  0  0  0  0  0  0  0  0  0
   -4.6159   -7.6258    8.9770 O   0  0  0  0  0  0  0  0  0  0  0  0
   -3.7040   -9.5698   10.8789 C   0  0  2  0  0  0  0  0  0  0  0  0
   -2.7975  -10.6301   11.5710 C   0  0  1  0  0  0  0  0  0  0  0  0
   -2.8926  -10.6209   13.0466 C   0  0  0  0  0  0  0  0  0  0  0  0
   -2.4037   -9.5970   13.7709 N   0  0  0  0  0  0  0  0  0  0  0  0
   -3.4188  -11.5787   13.6566 O   0  0  0  0  0  0  0  0  0  0  0  0
   -5.1335   -9.9763   10.9219 C   0  0  0  0  0  0  0  0  0  0  0  0
   -5.5450  -10.7320   10.0106 O   0  0  0  0  0  0  0  0  0  0  0  0
   -8.1890  -13.6928    8.7450 C   0  0  1  0  0  0  0  0  0  0  0  0
   -8.7640  -12.4026    8.4746 N   0  0  0  0  0  0  0  0  0  0  0  0
   -9.1432  -14.7835    8.4319 C   0  0  0  0  0  0  0  0  0  0  0  0
  -10.0674  -14.6338    7.5996 O   0  0  0  0  0  0  0  0  0  0  0  0
   -2.7406   -2.1633   -1.5721 C   0  0  0  0  0  0  0  0  0  0  0  0
   -2.0777   -1.5307   -2.6500 C   0  0  0  0  0  0  0  0  0  0  0  0
   -1.7453   -2.2430   -3.8161 C   0  0  0  0  0  0  0  0  0  0  0  0
   -2.0824   -3.6081   -3.9403 C   0  0  0  0  0  0  0  0  0  0  0  0
   -2.7673   -4.2561   -2.8725 C   0  0  0  0  0  0  0  0  0  0  0  0
   -3.0915   -3.5262   -1.7052 C   0  0  0  0  0  0  0  0  0  0  0  0
   -3.1029   -5.6242   -2.9949 C   0  0  0  0  0  0  0  0  0  0  0  0
   -2.7602   -6.3423   -4.1547 C   0  0  0  0  0  0  0  0  0  0  0  0
   -2.0876   -5.7012   -5.2092 C   0  0  0  0  0  0  0  0  0  0  0  0
   -1.7492   -4.3401   -5.1047 C   0  0  0  0  0  0  0  0  0  0  0  0
    3.1723    3.8487    7.5669 Cl  0  0  0  0  0  0  0  0  0  0  0  0
    1.2299   -3.8969    6.4039 C   0  0  0  0  0  0  0  0  0  0  0  0
    1.6198   -3.8567    5.0439 C   0  0  0  0  0  0  0  0  0  0  0  0
    2.9316   -3.4989    4.6829 C   0  0  0  0  0  0  0  0  0  0  0  0
    3.8456   -3.1562    5.6942 C   0  0  0  0  0  0  0  0  0  0  0  0
    3.4465   -3.1595    6.9908 N   0  0  0  0  0  0  0  0  0  0  0  0
    2.1895   -3.5090    7.3684 C   0  0  0  0  0  0  0  0  0  0  0  0
   -4.4737   -9.1139    5.6332 C   0  0  0  0  0  0  0  0  0  0  0  0
  -12.0788   -1.4826   15.2562 C   0  0  2  0  0  0  0  0  0  0  0  0
  -13.0175   -1.7870   16.4522 C   0  0  0  0  0  0  0  0  0  0  0  0
  -12.5022   -0.1868   14.5153 C   0  0  0  0  0  0  0  0  0  0  0  0
   -4.4260   -6.6808    5.8862 C   0  0  0  0  0  0  0  0  0  0  0  0
   -2.6045   -5.6049    4.5563 C   0  0  1  0  0  0  0  0  0  0  0  0
   -3.1717   -6.0853    3.3403 O   0  0  0  0  0  0  0  0  0  0  0  0
   -3.7036   -5.3861    5.6258 C   0  0  2  0  0  0  0  0  0  0  0  0
   -5.6460   -6.6365    5.5810 O   0  0  0  0  0  0  0  0  0  0  0  0
   -7.5602   -8.8323   13.3470 C   0  0  0  0  0  0  0  0  0  0  0  0
   -5.1040   -5.1271   13.9357 C   0  0  0  0  0  0  0  0  0  0  0  0
   -5.4217   -7.5071   13.0423 C   0  0  1  0  0  0  0  0  0  0  0  0
   -6.1026   -8.9157   13.0636 C   0  0  2  0  0  0  0  0  0  0  0  0
   -5.4514   -7.0265   15.5975 C   0  0  0  0  0  0  0  0  0  0  0  0
   -5.7990   -6.4970   14.1774 C   0  0  1  0  0  0  0  0  0  0  0  0
   -8.0533   -9.4548   14.3165 O   0  0  0  0  0  0  0  0  0  0  0  0
  -10.0087   -9.0823   11.1047 C   0  0  0  0  0  0  0  0  0  0  0  0
  -12.0649   -2.5824   14.2621 N   0  0  1  0  0  0  0  0  0  0  0  0
  -10.6256   -6.0840   13.5400 C   0  0  1  0  0  0  0  0  0  0  0  0
  -10.3572   -6.7787   12.1767 C   0  0  1  0  0  0  0  0  0  0  0  0
   -9.7519   -8.2069   12.2945 C   0  0  2  0  0  0  0  0  0  0  0  0
  -11.2308   -4.6715   13.3280 C   0  0  2  0  0  0  0  0  0  0  0  0
  -11.3999   -3.8526   14.6265 C   0  0  1  0  0  0  0  0  0  0  0  0
  -10.7991  -10.0396   11.2986 O   0  0  0  0  0  0  0  0  0  0  0  0
   -8.8417  -11.3549    9.3456 C   0  0  0  0  0  0  0  0  0  0  0  0
   -9.3995  -10.0529    8.8773 C   0  0  2  0  0  0  0  0  0  0  0  0
   -8.5612   -9.5123    7.6886 C   0  0  2  0  0  0  0  0  0  0  0  0
   -8.6350   -7.9938    7.8444 C   0  0  2  0  0  0  0  0  0  0  0  0
   -8.7296   -7.8109    9.3653 C   0  0  1  0  0  0  0  0  0  0  0  0
   -8.4170  -11.4739   10.5194 O   0  0  0  0  0  0  0  0  0  0  0  0
   -4.0618   -1.5623   -0.0248 H   0  0  0  0  0  0  0  0  0  0  0  0
   -2.8605   -0.3556   -0.4464 H   0  0  0  0  0  0  0  0  0  0  0  0
   -0.8003   -2.2415    3.0480 H   0  0  0  0  0  0  0  0  0  0  0  0
   -0.4204   -5.1490    6.1012 H   0  0  0  0  0  0  0  0  0  0  0  0
   -0.0505   -4.8652    7.7783 H   0  0  0  0  0  0  0  0  0  0  0  0
   -4.2404   -4.7927    7.4586 H   0  0  0  0  0  0  0  0  0  0  0  0
   -2.5567   -9.9705    9.2138 H   0  0  0  0  0  0  0  0  0  0  0  0
   -6.9537  -10.0592   11.6086 H   0  0  0  0  0  0  0  0  0  0  0  0
   -7.8552   -7.6094   11.8104 H   0  0  0  0  0  0  0  0  0  0  0  0
   -6.3988  -14.7987    8.1602 H   0  0  0  0  0  0  0  0  0  0  0  0
   -7.0920  -13.8152    6.8528 H   0  0  0  0  0  0  0  0  0  0  0  0
   -6.1898  -13.0426    8.1712 H   0  0  0  0  0  0  0  0  0  0  0  0
   -8.3206  -16.1437    9.6745 H   0  0  0  0  0  0  0  0  0  0  0  0
   -9.6508  -16.6975    8.8118 H   0  0  0  0  0  0  0  0  0  0  0  0
    2.1157   -3.6549    0.1040 H   0  0  0  0  0  0  0  0  0  0  0  0
    1.9839   -1.9102    0.3859 H   0  0  0  0  0  0  0  0  0  0  0  0
    1.4248   -2.6110   -1.1493 H   0  0  0  0  0  0  0  0  0  0  0  0
   -2.4259   -2.9173    1.1694 H   0  0  0  0  0  0  0  0  0  0  0  0
   -0.4142   -1.0960   -0.0035 H   0  0  0  0  0  0  0  0  0  0  0  0
   -1.4426    0.3838    4.2046 H   0  0  0  0  0  0  0  0  0  0  0  0
    0.7147    0.2524    2.8721 H   0  0  0  0  0  0  0  0  0  0  0  0
    1.2325   -1.0984    3.8665 H   0  0  0  0  0  0  0  0  0  0  0  0
    0.1274    2.4664    4.1390 H   0  0  0  0  0  0  0  0  0  0  0  0
    1.1266    4.0798    5.6100 H   0  0  0  0  0  0  0  0  0  0  0  0
    3.6292    1.0738    7.1973 H   0  0  0  0  0  0  0  0  0  0  0  0
    2.6050   -0.5414    5.7388 H   0  0  0  0  0  0  0  0  0  0  0  0
   -0.8525   -2.6265    7.6699 H   0  0  0  0  0  0  0  0  0  0  0  0
   -1.5458   -2.9783    4.8508 H   0  0  0  0  0  0  0  0  0  0  0  0
   -2.5019   -9.2009    7.1450 H   0  0  0  0  0  0  0  0  0  0  0  0
   -2.0471   -6.3362    7.8007 H   0  0  0  0  0  0  0  0  0  0  0  0
   -1.0852   -7.3346    6.7248 H   0  0  0  0  0  0  0  0  0  0  0  0
   -1.4716   -6.1845   10.0851 H   0  0  0  0  0  0  0  0  0  0  0  0
   -0.1678   -6.8921   11.9729 H   0  0  0  0  0  0  0  0  0  0  0  0
    1.1879   -8.3777   12.8163 H   0  0  0  0  0  0  0  0  0  0  0  0
    1.4161  -10.0678    9.7085 H   0  0  0  0  0  0  0  0  0  0  0  0
    0.0995   -9.3783    7.8095 H   0  0  0  0  0  0  0  0  0  0  0  0
   -3.5464   -8.6103   11.3581 H   0  0  0  0  0  0  0  0  0  0  0  0
   -3.0508  -11.6246   11.1901 H   0  0  0  0  0  0  0  0  0  0  0  0
   -1.7510  -10.4522   11.3118 H   0  0  0  0  0  0  0  0  0  0  0  0
   -2.4603   -9.6159   14.7394 H   0  0  0  0  0  0  0  0  0  0  0  0
   -1.9920   -8.8393   13.3270 H   0  0  0  0  0  0  0  0  0  0  0  0
   -7.9217  -13.7811    9.8030 H   0  0  0  0  0  0  0  0  0  0  0  0
   -9.1123  -12.2563    7.5801 H   0  0  0  0  0  0  0  0  0  0  0  0
   -1.8132   -0.5444   -2.5900 H   0  0  0  0  0  0  0  0  0  0  0  0
   -1.2491   -1.7580   -4.5698 H   0  0  0  0  0  0  0  0  0  0  0  0
   -3.5799   -3.9922   -0.9362 H   0  0  0  0  0  0  0  0  0  0  0  0
   -3.5985   -6.1102   -2.2438 H   0  0  0  0  0  0  0  0  0  0  0  0
   -3.0025   -7.3328   -4.2336 H   0  0  0  0  0  0  0  0  0  0  0  0
   -1.8439   -6.2242   -6.0543 H   0  0  0  0  0  0  0  0  0  0  0  0
   -1.2593   -3.8923   -5.8855 H   0  0  0  0  0  0  0  0  0  0  0  0
    0.9524   -4.0987    4.3071 H   0  0  0  0  0  0  0  0  0  0  0  0
    3.2172   -3.4927    3.7009 H   0  0  0  0  0  0  0  0  0  0  0  0
    4.8061   -2.9009    5.4602 H   0  0  0  0  0  0  0  0  0  0  0  0
    1.9565   -3.4975    8.3627 H   0  0  0  0  0  0  0  0  0  0  0  0
   -4.9511   -9.7690    6.3659 H   0  0  0  0  0  0  0  0  0  0  0  0
   -5.2114   -8.9000    4.8557 H   0  0  0  0  0  0  0  0  0  0  0  0
   -3.6706   -9.6683    5.1418 H   0  0  0  0  0  0  0  0  0  0  0  0
  -11.0642   -1.3284   15.6362 H   0  0  0  0  0  0  0  0  0  0  0  0
  -13.0499   -0.9359   17.1351 H   0  0  0  0  0  0  0  0  0  0  0  0
  -12.6549   -2.6522   17.0090 H   0  0  0  0  0  0  0  0  0  0  0  0
  -14.0304   -1.9958   16.1022 H   0  0  0  0  0  0  0  0  0  0  0  0
  -12.4263    0.6852   15.2954 H   0  0  0  0  0  0  0  0  0  0  0  0
  -11.8264   -0.0883   13.6115 H   0  0  0  0  0  0  0  0  0  0  0  0
  -13.5311   -0.3664   14.0781 H   0  0  0  0  0  0  0  0  0  0  0  0
   -1.8793   -6.3431    4.8763 H   0  0  0  0  0  0  0  0  0  0  0  0
   -2.0977   -4.6772    4.3196 H   0  0  0  0  0  0  0  0  0  0  0  0
   -2.4024   -6.2412    2.7544 H   0  0  0  0  0  0  0  0  0  0  0  0
   -4.4010   -4.7107    5.1132 H   0  0  0  0  0  0  0  0  0  0  0  0
   -5.3976   -4.7163   12.9675 H   0  0  0  0  0  0  0  0  0  0  0  0
   -4.0168   -5.2363   13.9520 H   0  0  0  0  0  0  0  0  0  0  0  0
   -5.3917   -4.4102   14.7076 H   0  0  0  0  0  0  0  0  0  0  0  0
   -4.3437   -7.6445   13.1187 H   0  0  0  0  0  0  0  0  0  0  0  0
   -5.6349   -7.0474   12.0726 H   0  0  0  0  0  0  0  0  0  0  0  0
   -5.6120   -9.5298   13.8256 H   0  0  0  0  0  0  0  0  0  0  0  0
   -4.3818   -7.2297   15.6844 H   0  0  0  0  0  0  0  0  0  0  0  0
   -5.9990   -7.9440   15.8143 H   0  0  0  0  0  0  0  0  0  0  0  0
   -5.7257   -6.2885   16.3545 H   0  0  0  0  0  0  0  0  0  0  0  0
   -6.8768   -6.3134   14.1414 H   0  0  0  0  0  0  0  0  0  0  0  0
  -13.0329   -2.7969   14.0133 H   0  0  0  0  0  0  0  0  0  0  0  0
  -11.3231   -6.6874   14.1287 H   0  0  0  0  0  0  0  0  0  0  0  0
   -9.6868   -6.0038   14.0949 H   0  0  0  0  0  0  0  0  0  0  0  0
  -11.2987   -6.8279   11.6211 H   0  0  0  0  0  0  0  0  0  0  0  0
   -9.6735   -6.1373   11.6182 H   0  0  0  0  0  0  0  0  0  0  0  0
  -10.2081   -8.6807   13.1713 H   0  0  0  0  0  0  0  0  0  0  0  0
  -12.2101   -4.7777   12.8503 H   0  0  0  0  0  0  0  0  0  0  0  0
  -10.5841   -4.1038   12.6520 H   0  0  0  0  0  0  0  0  0  0  0  0
  -10.4180   -3.6604   15.0676 H   0  0  0  0  0  0  0  0  0  0  0  0
  -12.0139   -4.4061   15.3406 H   0  0  0  0  0  0  0  0  0  0  0  0
  -10.4302  -10.2146    8.5443 H   0  0  0  0  0  0  0  0  0  0  0  0
   -8.9649   -9.8355    6.7251 H   0  0  0  0  0  0  0  0  0  0  0  0
   -7.5114   -9.8211    7.7540 H   0  0  0  0  0  0  0  0  0  0  0  0
   -9.5369   -7.6106    7.3560 H   0  0  0  0  0  0  0  0  0  0  0  0
   -7.7567   -7.4948    7.4276 H   0  0  0  0  0  0  0  0  0  0  0  0
   -9.2883   -6.8965    9.5575 H   0  0  0  0  0  0  0  0  0  0  0  0
   -7.7290   -7.7338    9.7977 H   0  0  0  0  0  0  0  0  0  0  0  0
  1 16  1  0  0  0  0 
 17  3  1  0  0  0  0 
 27 30  1  0  0  0  0 
 31  5  1  0  0  0  0 
 76  6  1  0  0  0  0 
 42  7  1  0  0  0  0 
 49  8  1  0  0  0  0 
 81  9  1  0  0  0  0 
 88 10  1  0  0  0  0 
 96 52  1  0  0  0  0 
 53 12  1  0  0  0  0 
  1 13  2  0  0  0  0 
  1 14  1  0  0  0  0 
  2 15  1  0  0  0  0 
 15 16  1  0  0  0  0 
 15 17  1  0  0  0  0 
 17 18  2  0  0  0  0 
 19  3  1  0  0  0  0 
 19 20  1  0  0  0  0 
 20 21  1  0  0  0  0 
 21 22  2  0  0  0  0 
 22 23  1  0  0  0  0 
 23 24  2  0  0  0  0 
 24 25  1  0  0  0  0 
 25 26  2  0  0  0  0 
 21 26  1  0  0  0  0 
 19 27  1  0  0  0  0 
 27 28  2  0  0  0  0 
  4 29  1  0  0  0  0 
 29 30  1  0  0  0  0 
 29 31  1  0  0  0  0 
 31 32  2  0  0  0  0 
 33  6  1  0  0  0  0 
 33 34  1  0  0  0  0 
 34 35  1  0  0  0  0 
 35 36  2  0  0  0  0 
 36 37  1  0  0  0  0 
 37 38  2  0  0  0  0 
 38 39  1  0  0  0  0 
 38 40  1  0  0  0  0 
 40 41  2  0  0  0  0 
 35 41  1  0  0  0  0 
 33 42  1  0  0  0  0 
 42 43  2  0  0  0  0 
 44  7  1  0  0  0  0 
 44 45  1  0  0  0  0 
 45 46  1  0  0  0  0 
 46 47  1  0  0  0  0 
 46 48  2  0  0  0  0 
 44 49  1  0  0  0  0 
 49 50  2  0  0  0  0 
 11 51  1  0  0  0  0 
 51 52  1  0  0  0  0 
 51 53  1  0  0  0  0 
 53 54  2  0  0  0  0 
  2 55  1  0  0  0  0 
 56 57  1  0  0  0  0 
 57 58  2  0  0  0  0 
 58 59  1  0  0  0  0 
 59 60  2  0  0  0  0 
 55 56  2  0  0  0  0 
 55 60  1  0  0  0  0 
 61 62  2  0  0  0  0 
 62 63  1  0  0  0  0 
 63 64  2  0  0  0  0 
 58 64  1  0  0  0  0 
 59 61  1  0  0  0  0 
 24 65  1  0  0  0  0 
  4 66  1  0  0  0  0 
 67 68  1  0  0  0  0 
 68 69  2  0  0  0  0 
 69 70  1  0  0  0  0 
 70 71  2  0  0  0  0 
 66 67  2  0  0  0  0 
 66 71  1  0  0  0  0 
  6 72  1  0  0  0  0 
 89 73  1  0  0  0  0 
 73 74  1  0  0  0  0 
 73 75  1  0  0  0  0 
 79  5  1  0  0  0  0 
 79 77  1  0  0  0  0 
 77 78  1  0  0  0  0 
 79 76  1  0  0  0  0 
 76 80  2  0  0  0  0 
 85 86  1  0  0  0  0 
 86 82  1  0  0  0  0 
 86 83  1  0  0  0  0 
 83 84  1  0  0  0  0 
 84  8  1  0  0  0  0 
 84 81  1  0  0  0  0 
 81 87  2  0  0  0  0 
 89 94  1  0  0  0  0 
 94 93  1  0  0  0  0 
 93 90  1  0  0  0  0 
 90 91  1  0  0  0  0 
 91 92  1  0  0  0  0 
 92  9  1  0  0  0  0 
 92 88  1  0  0  0  0 
 88 95  2  0  0  0  0 
101 96  2  0  0  0  0 
 97 96  1  0  0  0  0 
 97 98  1  0  0  0  0 
 98 99  1  0  0  0  0 
 99100  1  0  0  0  0 
100 10  1  0  0  0  0 
 97 10  1  0  0  0  0 
  2102  1  0  0  0  0 
  2103  1  0  0  0  0 
  3104  1  0  0  0  0 
  4105  1  0  0  0  0 
  4106  1  0  0  0  0 
  5107  1  0  0  0  0 
  7108  1  0  0  0  0 
  8109  1  0  0  0  0 
  9110  1  0  0  0  0 
 11111  1  0  0  0  0 
 11112  1  0  0  0  0 
 11113  1  0  0  0  0 
 12114  1  0  0  0  0 
 12115  1  0  0  0  0 
 14116  1  0  0  0  0 
 14117  1  0  0  0  0 
 14118  1  0  0  0  0 
 15119  1  0  0  0  0 
 16120  1  0  0  0  0 
 19121  1  0  0  0  0 
 20122  1  0  0  0  0 
 20123  1  0  0  0  0 
 22124  1  0  0  0  0 
 23125  1  0  0  0  0 
 25126  1  0  0  0  0 
 26127  1  0  0  0  0 
 29128  1  0  0  0  0 
 30129  1  0  0  0  0 
 33130  1  0  0  0  0 
 34131  1  0  0  0  0 
 34132  1  0  0  0  0 
 36133  1  0  0  0  0 
 37134  1  0  0  0  0 
 39135  1  0  0  0  0 
 40136  1  0  0  0  0 
 41137  1  0  0  0  0 
 44138  1  0  0  0  0 
 45139  1  0  0  0  0 
 45140  1  0  0  0  0 
 47141  1  0  0  0  0 
 47142  1  0  0  0  0 
 51143  1  0  0  0  0 
 52144  1  0  0  0  0 
 56145  1  0  0  0  0 
 57146  1  0  0  0  0 
 60147  1  0  0  0  0 
 61148  1  0  0  0  0 
 62149  1  0  0  0  0 
 63150  1  0  0  0  0 
 64151  1  0  0  0  0 
 67152  1  0  0  0  0 
 68153  1  0  0  0  0 
 69154  1  0  0  0  0 
 71155  1  0  0  0  0 
 72156  1  0  0  0  0 
 72157  1  0  0  0  0 
 72158  1  0  0  0  0 
 73159  1  0  0  0  0 
 74160  1  0  0  0  0 
 74161  1  0  0  0  0 
 74162  1  0  0  0  0 
 75163  1  0  0  0  0 
 75164  1  0  0  0  0 
 75165  1  0  0  0  0 
 77166  1  0  0  0  0 
 77167  1  0  0  0  0 
 78168  1  0  0  0  0 
 79169  1  0  0  0  0 
 82170  1  0  0  0  0 
 82171  1  0  0  0  0 
 82172  1  0  0  0  0 
 83173  1  0  0  0  0 
 83174  1  0  0  0  0 
 84175  1  0  0  0  0 
 85176  1  0  0  0  0 
 85177  1  0  0  0  0 
 85178  1  0  0  0  0 
 86179  1  0  0  0  0 
 89180  1  0  0  0  0 
 90181  1  0  0  0  0 
 90182  1  0  0  0  0 
 91183  1  0  0  0  0 
 91184  1  0  0  0  0 
 92185  1  0  0  0  0 
 93186  1  0  0  0  0 
 93187  1  0  0  0  0 
 94188  1  0  0  0  0 
 94189  1  0  0  0  0 
 97190  1  0  0  0  0 
 98191  1  0  0  0  0 
 98192  1  0  0  0  0 
 99193  1  0  0  0  0 
 99194  1  0  0  0  0 
100195  1  0  0  0  0 
100196  1  0  0  0  0 
M  END
> <cdk:Title>
abarelix

> <Conformer>
6

> <SuperDrugID>
SD000014

$$$$
abarelix
  CDK     0628171801

196201  0  0  0  0  0  0  0  0999 V2000
   -2.1432   -3.4618    5.2303 C   0  0  0  0  0  0  0  0  0  0  0  0
   -1.2890   -5.5855    2.9587 C   0  0  1  0  0  0  0  0  0  0  0  0
   -0.3526   -1.8702    2.8377 N   0  0  0  0  0  0  0  0  0  0  0  0
   -0.9905    1.8436   -0.2598 C   0  0  2  0  0  0  0  0  0  0  0  0
    0.5190   -0.3235   -2.3940 N   0  0  0  0  0  0  0  0  0  0  0  0
   -1.8585   -0.5834   -4.7981 N   0  0  0  0  0  0  0  0  0  0  0  0
   -1.3912    2.4541   -6.7003 N   0  0  0  0  0  0  0  0  0  0  0  0
    1.0690    2.3590   -9.4107 N   0  0  0  0  0  0  0  0  0  0  0  0
    3.5505    1.2080   -9.8347 N   0  0  0  0  0  0  0  0  0  0  0  0
    2.0797   -1.3103   -9.9972 N   0  0  0  0  0  0  0  0  0  0  0  0
   -3.5627   -0.5855  -11.2946 C   0  0  0  0  0  0  0  0  0  0  0  0
   -3.2544   -0.9459  -14.5141 N   0  0  0  0  0  0  0  0  0  0  0  0
   -1.0391   -3.7875    5.7263 O   0  0  0  0  0  0  0  0  0  0  0  0
   -3.2058   -2.9592    6.1195 C   0  0  0  0  0  0  0  0  0  0  0  0
   -1.4716   -4.0330    2.8754 C   0  0  1  0  0  0  0  0  0  0  0  0
   -2.3791   -3.5534    3.8889 N   0  0  0  0  0  0  0  0  0  0  0  0
   -0.2172   -3.2274    2.8872 C   0  0  0  0  0  0  0  0  0  0  0  0
    0.9082   -3.7701    3.0055 O   0  0  0  0  0  0  0  0  0  0  0  0
    0.6311   -0.8843    3.1907 C   0  0  2  0  0  0  0  0  0  0  0  0
    0.0224   -0.1362    4.4220 C   0  0  2  0  0  0  0  0  0  0  0  0
    0.9074    0.8579    5.0850 C   0  0  0  0  0  0  0  0  0  0  0  0
    2.0190    0.4248    5.8430 C   0  0  0  0  0  0  0  0  0  0  0  0
    2.8446    1.3508    6.5051 C   0  0  0  0  0  0  0  0  0  0  0  0
    2.5591    2.7274    6.4285 C   0  0  0  0  0  0  0  0  0  0  0  0
    1.4664    3.1754    5.6623 C   0  0  0  0  0  0  0  0  0  0  0  0
    0.6500    2.2454    4.9956 C   0  0  0  0  0  0  0  0  0  0  0  0
    0.9554    0.0448    2.0736 C   0  0  0  0  0  0  0  0  0  0  0  0
    1.8850    0.8641    2.2703 O   0  0  0  0  0  0  0  0  0  0  0  0
    0.3500    1.0649   -0.1301 C   0  0  1  0  0  0  0  0  0  0  0  0
    0.2675    0.0500    0.8885 N   0  0  0  0  0  0  0  0  0  0  0  0
    0.9187    0.5814   -1.4355 C   0  0  0  0  0  0  0  0  0  0  0  0
    2.0023    1.1100   -1.7798 O   0  0  0  0  0  0  0  0  0  0  0  0
   -1.9314    0.8903   -4.8803 C   0  0  1  0  0  0  0  0  0  0  0  0
   -1.8008    1.7728   -3.6027 C   0  0  2  0  0  0  0  0  0  0  0  0
   -1.8861    3.2511   -3.8256 C   0  0  0  0  0  0  0  0  0  0  0  0
   -0.7190    4.0553   -3.8377 C   0  0  0  0  0  0  0  0  0  0  0  0
   -0.7925    5.4316   -4.1206 C   0  0  0  0  0  0  0  0  0  0  0  0
   -2.0380    6.0329   -4.3864 C   0  0  0  0  0  0  0  0  0  0  0  0
   -2.1346    7.3563   -4.6744 O   0  0  0  0  0  0  0  0  0  0  0  0
   -3.2071    5.2503   -4.3560 C   0  0  0  0  0  0  0  0  0  0  0  0
   -3.1323    3.8732   -4.0744 C   0  0  0  0  0  0  0  0  0  0  0  0
   -0.9949    1.3984   -5.9226 C   0  0  0  0  0  0  0  0  0  0  0  0
    0.1619    0.9219   -6.0150 O   0  0  0  0  0  0  0  0  0  0  0  0
   -0.5686    3.1985   -7.6132 C   0  0  2  0  0  0  0  0  0  0  0  0
   -1.3664    4.4314   -8.1397 C   0  0  1  0  0  0  0  0  0  0  0  0
   -0.5160    5.4861   -8.7343 C   0  0  0  0  0  0  0  0  0  0  0  0
    0.3035    6.2224   -7.9640 N   0  0  0  0  0  0  0  0  0  0  0  0
   -0.5526    5.7269   -9.9619 O   0  0  0  0  0  0  0  0  0  0  0  0
   -0.1097    2.3387   -8.7360 C   0  0  0  0  0  0  0  0  0  0  0  0
   -0.8952    1.4548   -9.1521 O   0  0  0  0  0  0  0  0  0  0  0  0
   -2.3560   -0.8202  -12.2359 C   0  0  1  0  0  0  0  0  0  0  0  0
   -1.3282   -1.5264  -11.5250 N   0  0  0  0  0  0  0  0  0  0  0  0
   -2.7655   -1.5853  -13.4362 C   0  0  0  0  0  0  0  0  0  0  0  0
   -2.6939   -2.8358  -13.4804 O   0  0  0  0  0  0  0  0  0  0  0  0
   -2.5911   -6.3057    3.0813 C   0  0  0  0  0  0  0  0  0  0  0  0
   -3.0218   -6.8130    4.3288 C   0  0  0  0  0  0  0  0  0  0  0  0
   -4.2900   -7.4036    4.4722 C   0  0  0  0  0  0  0  0  0  0  0  0
   -5.1520   -7.5228    3.3603 C   0  0  0  0  0  0  0  0  0  0  0  0
   -4.7194   -7.0481    2.0890 C   0  0  0  0  0  0  0  0  0  0  0  0
   -3.4475   -6.4435    1.9653 C   0  0  0  0  0  0  0  0  0  0  0  0
   -5.5771   -7.1781    0.9722 C   0  0  0  0  0  0  0  0  0  0  0  0
   -6.8571   -7.7414    1.1187 C   0  0  0  0  0  0  0  0  0  0  0  0
   -7.2862   -8.2004    2.3748 C   0  0  0  0  0  0  0  0  0  0  0  0
   -6.4359   -8.1009    3.4905 C   0  0  0  0  0  0  0  0  0  0  0  0
    3.5331    3.8379    7.2542 Cl  0  0  0  0  0  0  0  0  0  0  0  0
   -1.5285    2.4049    1.0115 C   0  0  0  0  0  0  0  0  0  0  0  0
   -2.4042    1.6520    1.8317 C   0  0  0  0  0  0  0  0  0  0  0  0
   -2.9800    2.2260    2.9790 C   0  0  0  0  0  0  0  0  0  0  0  0
   -2.6591    3.5537    3.3053 C   0  0  0  0  0  0  0  0  0  0  0  0
   -1.7950    4.2532    2.5289 N   0  0  0  0  0  0  0  0  0  0  0  0
   -1.2236    3.7252    1.4164 C   0  0  0  0  0  0  0  0  0  0  0  0
   -2.7535   -1.2830   -5.7161 C   0  0  0  0  0  0  0  0  0  0  0  0
   11.3607    0.1621   -7.9090 C   0  0  2  0  0  0  0  0  0  0  0  0
   12.2723   -1.0353   -7.5356 C   0  0  0  0  0  0  0  0  0  0  0  0
   11.3658    1.2375   -6.7871 C   0  0  0  0  0  0  0  0  0  0  0  0
   -0.9753   -1.3697   -4.0305 C   0  0  0  0  0  0  0  0  0  0  0  0
   -1.8301   -1.2941   -1.6786 C   0  0  1  0  0  0  0  0  0  0  0  0
   -2.5409   -2.5150   -1.8774 O   0  0  0  0  0  0  0  0  0  0  0  0
   -0.5718   -1.2412   -2.5814 C   0  0  2  0  0  0  0  0  0  0  0  0
   -0.5380   -2.4191   -4.5709 O   0  0  0  0  0  0  0  0  0  0  0  0
    3.1704    2.4488  -10.2491 C   0  0  0  0  0  0  0  0  0  0  0  0
    4.8337    3.9472   -6.3947 C   0  0  0  0  0  0  0  0  0  0  0  0
    2.8629    3.4521   -7.9446 C   0  0  1  0  0  0  0  0  0  0  0  0
    2.2434    3.1953   -9.3587 C   0  0  2  0  0  0  0  0  0  0  0  0
    4.6150    5.2503   -8.5901 C   0  0  0  0  0  0  0  0  0  0  0  0
    4.3626    3.8941   -7.8746 C   0  0  1  0  0  0  0  0  0  0  0  0
    3.5014    2.9158  -11.3654 O   0  0  0  0  0  0  0  0  0  0  0  0
    3.0063   -0.7965  -10.9070 C   0  0  0  0  0  0  0  0  0  0  0  0
   10.0021   -0.3803   -8.1583 N   0  0  1  0  0  0  0  0  0  0  0  0
    6.6476    0.3504   -9.9344 C   0  0  1  0  0  0  0  0  0  0  0  0
    5.3322   -0.4763   -9.8759 C   0  0  1  0  0  0  0  0  0  0  0  0
    4.1236    0.1610  -10.6149 C   0  0  2  0  0  0  0  0  0  0  0  0
    7.7445   -0.3338   -9.0757 C   0  0  2  0  0  0  0  0  0  0  0  0
    9.0746    0.4431   -8.9697 C   0  0  1  0  0  0  0  0  0  0  0  0
    2.8645   -1.0975  -12.1175 O   0  0  0  0  0  0  0  0  0  0  0  0
   -0.0838   -1.0608  -11.2172 C   0  0  0  0  0  0  0  0  0  0  0  0
    0.8237   -1.9169  -10.3981 C   0  0  2  0  0  0  0  0  0  0  0  0
    0.1256   -2.3113   -9.0701 C   0  0  2  0  0  0  0  0  0  0  0  0
    1.2674   -2.3858   -8.0589 C   0  0  2  0  0  0  0  0  0  0  0  0
    2.2274   -1.3045   -8.5689 C   0  0  1  0  0  0  0  0  0  0  0  0
    0.2808    0.0804  -11.5876 O   0  0  0  0  0  0  0  0  0  0  0  0
   -0.7656   -5.9386    2.0646 H   0  0  0  0  0  0  0  0  0  0  0  0
   -0.6475   -5.8300    3.8103 H   0  0  0  0  0  0  0  0  0  0  0  0
   -1.2403   -1.5358    2.6288 H   0  0  0  0  0  0  0  0  0  0  0  0
   -1.7602    1.2085   -0.6723 H   0  0  0  0  0  0  0  0  0  0  0  0
   -0.8558    2.6639   -0.9711 H   0  0  0  0  0  0  0  0  0  0  0  0
    1.1618   -0.3898   -3.1181 H   0  0  0  0  0  0  0  0  0  0  0  0
   -2.3067    2.7590   -6.5916 H   0  0  0  0  0  0  0  0  0  0  0  0
    1.1125    1.6671  -10.0896 H   0  0  0  0  0  0  0  0  0  0  0  0
    3.3305    0.9833   -8.9167 H   0  0  0  0  0  0  0  0  0  0  0  0
   -4.3431   -0.0219  -11.8120 H   0  0  0  0  0  0  0  0  0  0  0  0
   -3.9828   -1.5352  -10.9528 H   0  0  0  0  0  0  0  0  0  0  0  0
   -3.2483   -0.0105  -10.4221 H   0  0  0  0  0  0  0  0  0  0  0  0
   -3.3393    0.0208  -14.5113 H   0  0  0  0  0  0  0  0  0  0  0  0
   -3.5252   -1.4501  -15.2977 H   0  0  0  0  0  0  0  0  0  0  0  0
   -2.8874   -2.9675    7.1640 H   0  0  0  0  0  0  0  0  0  0  0  0
   -4.0964   -3.5825    6.0260 H   0  0  0  0  0  0  0  0  0  0  0  0
   -3.4622   -1.9345    5.8473 H   0  0  0  0  0  0  0  0  0  0  0  0
   -1.9542   -3.8226    1.9161 H   0  0  0  0  0  0  0  0  0  0  0  0
   -3.2623   -3.2893    3.5876 H   0  0  0  0  0  0  0  0  0  0  0  0
    1.5610   -1.3682    3.5012 H   0  0  0  0  0  0  0  0  0  0  0  0
   -0.2558   -0.8675    5.1860 H   0  0  0  0  0  0  0  0  0  0  0  0
   -0.9132    0.3388    4.1175 H   0  0  0  0  0  0  0  0  0  0  0  0
    2.2317   -0.5720    5.9240 H   0  0  0  0  0  0  0  0  0  0  0  0
    3.6531    1.0152    7.0364 H   0  0  0  0  0  0  0  0  0  0  0  0
    1.2656    4.1751    5.5812 H   0  0  0  0  0  0  0  0  0  0  0  0
   -0.1329    2.5888    4.4427 H   0  0  0  0  0  0  0  0  0  0  0  0
    1.0404    1.8405    0.2230 H   0  0  0  0  0  0  0  0  0  0  0  0
   -0.3742   -0.6595    0.7582 H   0  0  0  0  0  0  0  0  0  0  0  0
   -2.9411    1.1424   -5.2261 H   0  0  0  0  0  0  0  0  0  0  0  0
   -0.8449    1.5599   -3.1517 H   0  0  0  0  0  0  0  0  0  0  0  0
   -2.5863    1.5066   -2.8956 H   0  0  0  0  0  0  0  0  0  0  0  0
    0.1977    3.6399   -3.6570 H   0  0  0  0  0  0  0  0  0  0  0  0
    0.0635    5.9910   -4.1387 H   0  0  0  0  0  0  0  0  0  0  0  0
   -1.2168    7.7010   -4.6773 H   0  0  0  0  0  0  0  0  0  0  0  0
   -4.1166    5.6809   -4.5453 H   0  0  0  0  0  0  0  0  0  0  0  0
   -3.9958    3.3248   -4.0584 H   0  0  0  0  0  0  0  0  0  0  0  0
    0.2665    3.5576   -7.0186 H   0  0  0  0  0  0  0  0  0  0  0  0
   -2.1095    4.1009   -8.8721 H   0  0  0  0  0  0  0  0  0  0  0  0
   -1.9209    4.8954   -7.3198 H   0  0  0  0  0  0  0  0  0  0  0  0
    0.8574    6.9128   -8.3609 H   0  0  0  0  0  0  0  0  0  0  0  0
    0.3415    6.0628   -7.0078 H   0  0  0  0  0  0  0  0  0  0  0  0
   -1.9970    0.1630  -12.5618 H   0  0  0  0  0  0  0  0  0  0  0  0
   -1.5473   -2.4202  -11.2152 H   0  0  0  0  0  0  0  0  0  0  0  0
   -2.4213   -6.7379    5.1544 H   0  0  0  0  0  0  0  0  0  0  0  0
   -4.5807   -7.7392    5.3963 H   0  0  0  0  0  0  0  0  0  0  0  0
   -3.1445   -6.0836    1.0566 H   0  0  0  0  0  0  0  0  0  0  0  0
   -5.2778   -6.8624    0.0456 H   0  0  0  0  0  0  0  0  0  0  0  0
   -7.4765   -7.8171    0.3096 H   0  0  0  0  0  0  0  0  0  0  0  0
   -8.2170   -8.6064    2.4772 H   0  0  0  0  0  0  0  0  0  0  0  0
   -6.7630   -8.4481    4.3963 H   0  0  0  0  0  0  0  0  0  0  0  0
   -2.6380    0.6859    1.5916 H   0  0  0  0  0  0  0  0  0  0  0  0
   -3.6226    1.6878    3.5650 H   0  0  0  0  0  0  0  0  0  0  0  0
   -3.0706    3.9953    4.1258 H   0  0  0  0  0  0  0  0  0  0  0  0
   -0.5814    4.3024    0.8704 H   0  0  0  0  0  0  0  0  0  0  0  0
   -2.5826   -0.9524   -6.7429 H   0  0  0  0  0  0  0  0  0  0  0  0
   -2.6667   -2.3720   -5.7043 H   0  0  0  0  0  0  0  0  0  0  0  0
   -3.7893   -1.0598   -5.4495 H   0  0  0  0  0  0  0  0  0  0  0  0
   11.7583    0.6032   -8.8283 H   0  0  0  0  0  0  0  0  0  0  0  0
   13.3017   -0.7025   -7.3913 H   0  0  0  0  0  0  0  0  0  0  0  0
   12.2657   -1.7770   -8.3369 H   0  0  0  0  0  0  0  0  0  0  0  0
   11.9267   -1.5154   -6.6169 H   0  0  0  0  0  0  0  0  0  0  0  0
   12.4922    1.5046   -6.5864 H   0  0  0  0  0  0  0  0  0  0  0  0
   10.7210    2.0993   -7.1354 H   0  0  0  0  0  0  0  0  0  0  0  0
   10.8042    0.8013   -5.9073 H   0  0  0  0  0  0  0  0  0  0  0  0
   -2.5237   -0.4911   -1.9053 H   0  0  0  0  0  0  0  0  0  0  0  0
   -1.5618   -1.2558   -0.6277 H   0  0  0  0  0  0  0  0  0  0  0  0
   -3.3174   -2.4531   -1.2832 H   0  0  0  0  0  0  0  0  0  0  0  0
   -0.0551   -2.1717   -2.3088 H   0  0  0  0  0  0  0  0  0  0  0  0
    4.6831    2.9743   -5.9199 H   0  0  0  0  0  0  0  0  0  0  0  0
    4.2682    4.6984   -5.8368 H   0  0  0  0  0  0  0  0  0  0  0  0
    5.8972    4.1916   -6.3384 H   0  0  0  0  0  0  0  0  0  0  0  0
    2.2939    4.2427   -7.4565 H   0  0  0  0  0  0  0  0  0  0  0  0
    2.7402    2.5400   -7.3557 H   0  0  0  0  0  0  0  0  0  0  0  0
    1.9958    4.1571   -9.8169 H   0  0  0  0  0  0  0  0  0  0  0  0
    4.0570    6.0562   -8.1121 H   0  0  0  0  0  0  0  0  0  0  0  0
    4.3122    5.1980   -9.6358 H   0  0  0  0  0  0  0  0  0  0  0  0
    5.6750    5.5046   -8.5665 H   0  0  0  0  0  0  0  0  0  0  0  0
    4.9831    3.1444   -8.3720 H   0  0  0  0  0  0  0  0  0  0  0  0
   10.1268   -1.2494   -8.6831 H   0  0  0  0  0  0  0  0  0  0  0  0
    6.9877    0.4231  -10.9716 H   0  0  0  0  0  0  0  0  0  0  0  0
    6.4679    1.3615   -9.5606 H   0  0  0  0  0  0  0  0  0  0  0  0
    5.5259   -1.4640  -10.3033 H   0  0  0  0  0  0  0  0  0  0  0  0
    5.0844   -0.6045   -8.8228 H   0  0  0  0  0  0  0  0  0  0  0  0
    4.5010    0.5633  -11.5641 H   0  0  0  0  0  0  0  0  0  0  0  0
    7.9526   -1.3199   -9.5007 H   0  0  0  0  0  0  0  0  0  0  0  0
    7.3651   -0.4789   -8.0594 H   0  0  0  0  0  0  0  0  0  0  0  0
    8.8951    1.4086   -8.4914 H   0  0  0  0  0  0  0  0  0  0  0  0
    9.4914    0.6062   -9.9665 H   0  0  0  0  0  0  0  0  0  0  0  0
    1.0468   -2.8299  -10.9612 H   0  0  0  0  0  0  0  0  0  0  0  0
   -0.3992   -3.2667   -9.1543 H   0  0  0  0  0  0  0  0  0  0  0  0
   -0.5837   -1.5443   -8.7400 H   0  0  0  0  0  0  0  0  0  0  0  0
    1.7439   -3.3704   -8.0983 H   0  0  0  0  0  0  0  0  0  0  0  0
    0.9274   -2.1888   -7.0396 H   0  0  0  0  0  0  0  0  0  0  0  0
    3.2270   -1.5758   -8.2425 H   0  0  0  0  0  0  0  0  0  0  0  0
    1.9507   -0.3321   -8.1550 H   0  0  0  0  0  0  0  0  0  0  0  0
  1 16  1  0  0  0  0 
 17  3  1  0  0  0  0 
 27 30  1  0  0  0  0 
 31  5  1  0  0  0  0 
 76  6  1  0  0  0  0 
 42  7  1  0  0  0  0 
 49  8  1  0  0  0  0 
 81  9  1  0  0  0  0 
 88 10  1  0  0  0  0 
 96 52  1  0  0  0  0 
 53 12  1  0  0  0  0 
  1 13  2  0  0  0  0 
  1 14  1  0  0  0  0 
  2 15  1  0  0  0  0 
 15 16  1  0  0  0  0 
 15 17  1  0  0  0  0 
 17 18  2  0  0  0  0 
 19  3  1  0  0  0  0 
 19 20  1  0  0  0  0 
 20 21  1  0  0  0  0 
 21 22  2  0  0  0  0 
 22 23  1  0  0  0  0 
 23 24  2  0  0  0  0 
 24 25  1  0  0  0  0 
 25 26  2  0  0  0  0 
 21 26  1  0  0  0  0 
 19 27  1  0  0  0  0 
 27 28  2  0  0  0  0 
  4 29  1  0  0  0  0 
 29 30  1  0  0  0  0 
 29 31  1  0  0  0  0 
 31 32  2  0  0  0  0 
 33  6  1  0  0  0  0 
 33 34  1  0  0  0  0 
 34 35  1  0  0  0  0 
 35 36  2  0  0  0  0 
 36 37  1  0  0  0  0 
 37 38  2  0  0  0  0 
 38 39  1  0  0  0  0 
 38 40  1  0  0  0  0 
 40 41  2  0  0  0  0 
 35 41  1  0  0  0  0 
 33 42  1  0  0  0  0 
 42 43  2  0  0  0  0 
 44  7  1  0  0  0  0 
 44 45  1  0  0  0  0 
 45 46  1  0  0  0  0 
 46 47  1  0  0  0  0 
 46 48  2  0  0  0  0 
 44 49  1  0  0  0  0 
 49 50  2  0  0  0  0 
 11 51  1  0  0  0  0 
 51 52  1  0  0  0  0 
 51 53  1  0  0  0  0 
 53 54  2  0  0  0  0 
  2 55  1  0  0  0  0 
 56 57  1  0  0  0  0 
 57 58  2  0  0  0  0 
 58 59  1  0  0  0  0 
 59 60  2  0  0  0  0 
 55 56  2  0  0  0  0 
 55 60  1  0  0  0  0 
 61 62  2  0  0  0  0 
 62 63  1  0  0  0  0 
 63 64  2  0  0  0  0 
 58 64  1  0  0  0  0 
 59 61  1  0  0  0  0 
 24 65  1  0  0  0  0 
  4 66  1  0  0  0  0 
 67 68  1  0  0  0  0 
 68 69  2  0  0  0  0 
 69 70  1  0  0  0  0 
 70 71  2  0  0  0  0 
 66 67  2  0  0  0  0 
 66 71  1  0  0  0  0 
  6 72  1  0  0  0  0 
 89 73  1  0  0  0  0 
 73 74  1  0  0  0  0 
 73 75  1  0  0  0  0 
 79  5  1  0  0  0  0 
 79 77  1  0  0  0  0 
 77 78  1  0  0  0  0 
 79 76  1  0  0  0  0 
 76 80  2  0  0  0  0 
 85 86  1  0  0  0  0 
 86 82  1  0  0  0  0 
 86 83  1  0  0  0  0 
 83 84  1  0  0  0  0 
 84  8  1  0  0  0  0 
 84 81  1  0  0  0  0 
 81 87  2  0  0  0  0 
 89 94  1  0  0  0  0 
 94 93  1  0  0  0  0 
 93 90  1  0  0  0  0 
 90 91  1  0  0  0  0 
 91 92  1  0  0  0  0 
 92  9  1  0  0  0  0 
 92 88  1  0  0  0  0 
 88 95  2  0  0  0  0 
101 96  2  0  0  0  0 
 97 96  1  0  0  0  0 
 97 98  1  0  0  0  0 
 98 99  1  0  0  0  0 
 99100  1  0  0  0  0 
100 10  1  0  0  0  0 
 97 10  1  0  0  0  0 
  2102  1  0  0  0  0 
  2103  1  0  0  0  0 
  3104  1  0  0  0  0 
  4105  1  0  0  0  0 
  4106  1  0  0  0  0 
  5107  1  0  0  0  0 
  7108  1  0  0  0  0 
  8109  1  0  0  0  0 
  9110  1  0  0  0  0 
 11111  1  0  0  0  0 
 11112  1  0  0  0  0 
 11113  1  0  0  0  0 
 12114  1  0  0  0  0 
 12115  1  0  0  0  0 
 14116  1  0  0  0  0 
 14117  1  0  0  0  0 
 14118  1  0  0  0  0 
 15119  1  0  0  0  0 
 16120  1  0  0  0  0 
 19121  1  0  0  0  0 
 20122  1  0  0  0  0 
 20123  1  0  0  0  0 
 22124  1  0  0  0  0 
 23125  1  0  0  0  0 
 25126  1  0  0  0  0 
 26127  1  0  0  0  0 
 29128  1  0  0  0  0 
 30129  1  0  0  0  0 
 33130  1  0  0  0  0 
 34131  1  0  0  0  0 
 34132  1  0  0  0  0 
 36133  1  0  0  0  0 
 37134  1  0  0  0  0 
 39135  1  0  0  0  0 
 40136  1  0  0  0  0 
 41137  1  0  0  0  0 
 44138  1  0  0  0  0 
 45139  1  0  0  0  0 
 45140  1  0  0  0  0 
 47141  1  0  0  0  0 
 47142  1  0  0  0  0 
 51143  1  0  0  0  0 
 52144  1  0  0  0  0 
 56145  1  0  0  0  0 
 57146  1  0  0  0  0 
 60147  1  0  0  0  0 
 61148  1  0  0  0  0 
 62149  1  0  0  0  0 
 63150  1  0  0  0  0 
 64151  1  0  0  0  0 
 67152  1  0  0  0  0 
 68153  1  0  0  0  0 
 69154  1  0  0  0  0 
 71155  1  0  0  0  0 
 72156  1  0  0  0  0 
 72157  1  0  0  0  0 
 72158  1  0  0  0  0 
 73159  1  0  0  0  0 
 74160  1  0  0  0  0 
 74161  1  0  0  0  0 
 74162  1  0  0  0  0 
 75163  1  0  0  0  0 
 75164  1  0  0  0  0 
 75165  1  0  0  0  0 
 77166  1  0  0  0  0 
 77167  1  0  0  0  0 
 78168  1  0  0  0  0 
 79169  1  0  0  0  0 
 82170  1  0  0  0  0 
 82171  1  0  0  0  0 
 82172  1  0  0  0  0 
 83173  1  0  0  0  0 
 83174  1  0  0  0  0 
 84175  1  0  0  0  0 
 85176  1  0  0  0  0 
 85177  1  0  0  0  0 
 85178  1  0  0  0  0 
 86179  1  0  0  0  0 
 89180  1  0  0  0  0 
 90181  1  0  0  0  0 
 90182  1  0  0  0  0 
 91183  1  0  0  0  0 
 91184  1  0  0  0  0 
 92185  1  0  0  0  0 
 93186  1  0  0  0  0 
 93187  1  0  0  0  0 
 94188  1  0  0  0  0 
 94189  1  0  0  0  0 
 97190  1  0  0  0  0 
 98191  1  0  0  0  0 
 98192  1  0  0  0  0 
 99193  1  0  0  0  0 
 99194  1  0  0  0  0 
100195  1  0  0  0  0 
100196  1  0  0  0  0 
M  END
> <cdk:Title>
abarelix

> <Conformer>
7

> <SuperDrugID>
SD000014

$$$$
abarelix
  CDK     0628171801

196201  0  0  0  0  0  0  0  0999 V2000
   -2.4630   -4.2701    3.9189 C   0  0  0  0  0  0  0  0  0  0  0  0
   -0.2593   -5.4785    1.4426 C   0  0  1  0  0  0  0  0  0  0  0  0
   -0.1042   -1.7956    2.5638 N   0  0  0  0  0  0  0  0  0  0  0  0
    4.1781   -1.2464    2.9881 C   0  0  2  0  0  0  0  0  0  0  0  0
    5.5462    0.6291    0.5884 N   0  0  0  0  0  0  0  0  0  0  0  0
    8.3964    1.6935    1.8161 N   0  0  0  0  0  0  0  0  0  0  0  0
   10.3371   -0.7905    0.0136 N   0  0  0  0  0  0  0  0  0  0  0  0
   11.6569    0.1695   -3.2522 N   0  0  0  0  0  0  0  0  0  0  0  0
   10.7984    1.7781   -5.3811 N   0  0  0  0  0  0  0  0  0  0  0  0
   11.3906    3.9907   -3.5483 N   0  0  0  0  0  0  0  0  0  0  0  0
   14.9124    2.6239    0.7932 C   0  0  0  0  0  0  0  0  0  0  0  0
   17.7620    3.5553   -0.7021 N   0  0  0  0  0  0  0  0  0  0  0  0
   -3.4416   -3.9547    3.2026 O   0  0  0  0  0  0  0  0  0  0  0  0
   -2.6627   -4.5406    5.3520 C   0  0  0  0  0  0  0  0  0  0  0  0
   -0.7776   -4.1381    2.0708 C   0  0  1  0  0  0  0  0  0  0  0  0
   -1.2022   -4.3697    3.4209 N   0  0  0  0  0  0  0  0  0  0  0  0
    0.2492   -3.0676    2.1878 C   0  0  0  0  0  0  0  0  0  0  0  0
    1.4555   -3.3630    2.0332 O   0  0  0  0  0  0  0  0  0  0  0  0
    0.7797   -0.8250    3.1513 C   0  0  2  0  0  0  0  0  0  0  0  0
    0.0462   -0.1407    4.3521 C   0  0  2  0  0  0  0  0  0  0  0  0
    0.8853    0.8488    5.0953 C   0  0  0  0  0  0  0  0  0  0  0  0
    1.9874    0.4181    5.8713 C   0  0  0  0  0  0  0  0  0  0  0  0
    2.8302    1.3453    6.5113 C   0  0  0  0  0  0  0  0  0  0  0  0
    2.5727    2.7250    6.4040 C   0  0  0  0  0  0  0  0  0  0  0  0
    1.4531    3.1681    5.6737 C   0  0  0  0  0  0  0  0  0  0  0  0
    0.6148    2.2376    5.0310 C   0  0  0  0  0  0  0  0  0  0  0  0
    1.3099    0.1727    2.1698 C   0  0  0  0  0  0  0  0  0  0  0  0
    0.5445    1.0876    1.7895 O   0  0  0  0  0  0  0  0  0  0  0  0
    3.5831   -0.7797    1.6063 C   0  0  1  0  0  0  0  0  0  0  0  0
    2.5688    0.2356    1.6291 N   0  0  0  0  0  0  0  0  0  0  0  0
    4.6344   -0.4005    0.6058 C   0  0  0  0  0  0  0  0  0  0  0  0
    4.7379   -1.1339   -0.4064 O   0  0  0  0  0  0  0  0  0  0  0  0
    8.8675    0.3106    1.6297 C   0  0  1  0  0  0  0  0  0  0  0  0
    7.9992   -0.8436    2.2183 C   0  0  2  0  0  0  0  0  0  0  0  0
    8.3273   -2.2321    1.7726 C   0  0  0  0  0  0  0  0  0  0  0  0
    7.9179   -2.7062    0.4987 C   0  0  0  0  0  0  0  0  0  0  0  0
    8.2607   -3.9985    0.0602 C   0  0  0  0  0  0  0  0  0  0  0  0
    9.0092   -4.8487    0.8956 C   0  0  0  0  0  0  0  0  0  0  0  0
    9.3620   -6.0952    0.4904 O   0  0  0  0  0  0  0  0  0  0  0  0
    9.4055   -4.3968    2.1684 C   0  0  0  0  0  0  0  0  0  0  0  0
    9.0661   -3.1023    2.6039 C   0  0  0  0  0  0  0  0  0  0  0  0
    9.3038    0.0786    0.2236 C   0  0  0  0  0  0  0  0  0  0  0  0
    8.7119    0.6229   -0.7385 O   0  0  0  0  0  0  0  0  0  0  0  0
   10.8450   -1.2395   -1.2488 C   0  0  2  0  0  0  0  0  0  0  0  0
   11.7541   -2.4768   -0.9873 C   0  0  1  0  0  0  0  0  0  0  0  0
   12.0770   -3.2570   -2.2000 C   0  0  0  0  0  0  0  0  0  0  0  0
   11.1300   -3.9711   -2.8361 N   0  0  0  0  0  0  0  0  0  0  0  0
   13.2468   -3.2911   -2.6448 O   0  0  0  0  0  0  0  0  0  0  0  0
   11.5852   -0.1430   -1.9296 C   0  0  0  0  0  0  0  0  0  0  0  0
   12.2675    0.6249   -1.2117 O   0  0  0  0  0  0  0  0  0  0  0  0
   15.3296    3.2160   -0.5762 C   0  0  1  0  0  0  0  0  0  0  0  0
   14.2299    3.9768   -1.1023 N   0  0  0  0  0  0  0  0  0  0  0  0
   16.5420    4.0558   -0.4276 C   0  0  0  0  0  0  0  0  0  0  0  0
   16.4702    5.2330   -0.0048 O   0  0  0  0  0  0  0  0  0  0  0  0
   -1.1843   -6.6427    1.5897 C   0  0  0  0  0  0  0  0  0  0  0  0
   -1.0772   -7.4952    2.7144 C   0  0  0  0  0  0  0  0  0  0  0  0
   -1.9122   -8.6154    2.8611 C   0  0  0  0  0  0  0  0  0  0  0  0
   -2.8904   -8.9111    1.8865 C   0  0  0  0  0  0  0  0  0  0  0  0
   -3.0206   -8.0556    0.7524 C   0  0  0  0  0  0  0  0  0  0  0  0
   -2.1713   -6.9328    0.6185 C   0  0  0  0  0  0  0  0  0  0  0  0
   -3.9983   -8.3502   -0.2260 C   0  0  0  0  0  0  0  0  0  0  0  0
   -4.8329   -9.4731   -0.0872 C   0  0  0  0  0  0  0  0  0  0  0  0
   -4.7025  -10.3145    1.0312 C   0  0  0  0  0  0  0  0  0  0  0  0
   -3.7381  -10.0354    2.0160 C   0  0  0  0  0  0  0  0  0  0  0  0
    3.6065    3.8429    7.1463 Cl  0  0  0  0  0  0  0  0  0  0  0  0
    4.1562   -2.7165    3.2427 C   0  0  0  0  0  0  0  0  0  0  0  0
    3.5352   -3.2579    4.3929 C   0  0  0  0  0  0  0  0  0  0  0  0
    3.4837   -4.6468    4.5995 C   0  0  0  0  0  0  0  0  0  0  0  0
    4.0856   -5.4955    3.6535 C   0  0  0  0  0  0  0  0  0  0  0  0
    4.7084   -4.9641    2.5711 N   0  0  0  0  0  0  0  0  0  0  0  0
    4.7645   -3.6265    2.3457 C   0  0  0  0  0  0  0  0  0  0  0  0
    9.3381    2.5943    2.4658 C   0  0  0  0  0  0  0  0  0  0  0  0
    5.6845    3.6257  -11.3235 C   0  0  2  0  0  0  0  0  0  0  0  0
    4.8313    4.8546  -11.7298 C   0  0  0  0  0  0  0  0  0  0  0  0
    4.7971    2.3680  -11.1136 C   0  0  0  0  0  0  0  0  0  0  0  0
    7.2152    2.2505    1.2982 C   0  0  0  0  0  0  0  0  0  0  0  0
    5.4011    1.8037    2.9344 C   0  0  1  0  0  0  0  0  0  0  0  0
    5.5424    3.1224    3.4635 O   0  0  0  0  0  0  0  0  0  0  0  0
    5.7942    1.7708    1.4290 C   0  0  2  0  0  0  0  0  0  0  0  0
    7.3284    3.3730    0.7434 O   0  0  0  0  0  0  0  0  0  0  0  0
   11.4645    0.5925   -5.4729 C   0  0  0  0  0  0  0  0  0  0  0  0
    7.4576   -1.3972   -5.6632 C   0  0  0  0  0  0  0  0  0  0  0  0
    9.6613   -0.8844   -4.4665 C   0  0  1  0  0  0  0  0  0  0  0  0
   11.1637   -0.4507   -4.4578 C   0  0  2  0  0  0  0  0  0  0  0  0
    9.6409   -2.2939   -6.6468 C   0  0  0  0  0  0  0  0  0  0  0  0
    8.9781   -1.1325   -5.8531 C   0  0  1  0  0  0  0  0  0  0  0  0
   12.3795    0.4099   -6.3109 O   0  0  0  0  0  0  0  0  0  0  0  0
   11.8570    3.8046   -4.8504 C   0  0  0  0  0  0  0  0  0  0  0  0
    6.4127    3.9976  -10.0856 N   0  0  1  0  0  0  0  0  0  0  0  0
    9.4894    3.1299   -7.9339 C   0  0  1  0  0  0  0  0  0  0  0  0
    9.9724    3.7617   -6.5986 C   0  0  1  0  0  0  0  0  0  0  0  0
   11.1818    3.0332   -5.9462 C   0  0  2  0  0  0  0  0  0  0  0  0
    8.1951    3.8199   -8.4389 C   0  0  2  0  0  0  0  0  0  0  0  0
    7.6372    3.2353   -9.7554 C   0  0  1  0  0  0  0  0  0  0  0  0
   12.9911    4.2625   -5.1356 O   0  0  0  0  0  0  0  0  0  0  0  0
   13.4429    3.6390   -2.1662 C   0  0  0  0  0  0  0  0  0  0  0  0
   12.2284    4.4571   -2.4587 C   0  0  2  0  0  0  0  0  0  0  0  0
   11.2972    4.4778   -1.2153 C   0  0  2  0  0  0  0  0  0  0  0  0
    9.8845    4.5074   -1.7947 C   0  0  2  0  0  0  0  0  0  0  0  0
   10.0438    3.7469   -3.1158 C   0  0  1  0  0  0  0  0  0  0  0  0
   13.7066    2.6254   -2.8557 O   0  0  0  0  0  0  0  0  0  0  0  0
   -0.0517   -5.3100    0.3822 H   0  0  0  0  0  0  0  0  0  0  0  0
    0.7016   -5.7522    1.8889 H   0  0  0  0  0  0  0  0  0  0  0  0
   -1.0423   -1.5584    2.5170 H   0  0  0  0  0  0  0  0  0  0  0  0
    3.6791   -0.7103    3.7926 H   0  0  0  0  0  0  0  0  0  0  0  0
    5.2113   -0.9653    3.0953 H   0  0  0  0  0  0  0  0  0  0  0  0
    6.1350    0.6014   -0.1831 H   0  0  0  0  0  0  0  0  0  0  0  0
   10.7604   -1.1584    0.8057 H   0  0  0  0  0  0  0  0  0  0  0  0
   12.1921    0.9636   -3.4126 H   0  0  0  0  0  0  0  0  0  0  0  0
   10.0291    1.7915   -4.7931 H   0  0  0  0  0  0  0  0  0  0  0  0
   15.6998    1.9717    1.1792 H   0  0  0  0  0  0  0  0  0  0  0  0
   14.7234    3.4167    1.5213 H   0  0  0  0  0  0  0  0  0  0  0  0
   14.0023    2.0293    0.6847 H   0  0  0  0  0  0  0  0  0  0  0  0
   17.8526    2.6395   -1.0116 H   0  0  0  0  0  0  0  0  0  0  0  0
   18.5535    4.1043   -0.5822 H   0  0  0  0  0  0  0  0  0  0  0  0
   -3.7065   -4.4102    5.6434 H   0  0  0  0  0  0  0  0  0  0  0  0
   -2.0503   -3.8577    5.9430 H   0  0  0  0  0  0  0  0  0  0  0  0
   -2.3657   -5.5659    5.5757 H   0  0  0  0  0  0  0  0  0  0  0  0
   -1.5880   -3.7625    1.4415 H   0  0  0  0  0  0  0  0  0  0  0  0
   -0.5097   -4.6245    4.0511 H   0  0  0  0  0  0  0  0  0  0  0  0
    1.5923   -1.3777    3.6003 H   0  0  0  0  0  0  0  0  0  0  0  0
   -0.2872   -0.9052    5.0605 H   0  0  0  0  0  0  0  0  0  0  0  0
   -0.8608    0.3386    3.9734 H   0  0  0  0  0  0  0  0  0  0  0  0
    2.1883   -0.5781    5.9728 H   0  0  0  0  0  0  0  0  0  0  0  0
    3.6316    1.0098    7.0527 H   0  0  0  0  0  0  0  0  0  0  0  0
    1.2455    4.1678    5.6018 H   0  0  0  0  0  0  0  0  0  0  0  0
   -0.1909    2.5865    4.5071 H   0  0  0  0  0  0  0  0  0  0  0  0
    3.0529   -1.6329    1.1720 H   0  0  0  0  0  0  0  0  0  0  0  0
    2.7742    1.0465    1.1360 H   0  0  0  0  0  0  0  0  0  0  0  0
    9.7933    0.1929    2.2082 H   0  0  0  0  0  0  0  0  0  0  0  0
    6.9860   -0.6828    1.9422 H   0  0  0  0  0  0  0  0  0  0  0  0
    8.0275   -0.7763    3.3110 H   0  0  0  0  0  0  0  0  0  0  0  0
    7.3760   -2.1063   -0.1284 H   0  0  0  0  0  0  0  0  0  0  0  0
    7.9689   -4.3140   -0.8684 H   0  0  0  0  0  0  0  0  0  0  0  0
    8.9289   -6.2342   -0.3777 H   0  0  0  0  0  0  0  0  0  0  0  0
    9.9465   -5.0086    2.7827 H   0  0  0  0  0  0  0  0  0  0  0  0
    9.3688   -2.7951    3.5311 H   0  0  0  0  0  0  0  0  0  0  0  0
    9.9783   -1.5547   -1.8185 H   0  0  0  0  0  0  0  0  0  0  0  0
   12.6772   -2.1494   -0.4997 H   0  0  0  0  0  0  0  0  0  0  0  0
   11.2565   -3.1575   -0.2926 H   0  0  0  0  0  0  0  0  0  0  0  0
   11.3597   -4.4890   -3.6232 H   0  0  0  0  0  0  0  0  0  0  0  0
   10.2174   -3.9742   -2.5066 H   0  0  0  0  0  0  0  0  0  0  0  0
   15.5716    2.3735   -1.2333 H   0  0  0  0  0  0  0  0  0  0  0  0
   13.9947    4.7887   -0.6246 H   0  0  0  0  0  0  0  0  0  0  0  0
   -0.3814   -7.3035    3.4409 H   0  0  0  0  0  0  0  0  0  0  0  0
   -1.7975   -9.2117    3.6861 H   0  0  0  0  0  0  0  0  0  0  0  0
   -2.2669   -6.3180   -0.1964 H   0  0  0  0  0  0  0  0  0  0  0  0
   -4.1097   -7.7515   -1.0478 H   0  0  0  0  0  0  0  0  0  0  0  0
   -5.5354   -9.6787   -0.8014 H   0  0  0  0  0  0  0  0  0  0  0  0
   -5.3129  -11.1296    1.1281 H   0  0  0  0  0  0  0  0  0  0  0  0
   -3.6612  -10.6611    2.8241 H   0  0  0  0  0  0  0  0  0  0  0  0
    3.1077   -2.6454    5.0884 H   0  0  0  0  0  0  0  0  0  0  0  0
    3.0146   -5.0280    5.4266 H   0  0  0  0  0  0  0  0  0  0  0  0
    4.0640   -6.5101    3.7779 H   0  0  0  0  0  0  0  0  0  0  0  0
    5.2451   -3.2947    1.5094 H   0  0  0  0  0  0  0  0  0  0  0  0
   10.2514    2.6712    1.8716 H   0  0  0  0  0  0  0  0  0  0  0  0
    8.9522    3.6043    2.6220 H   0  0  0  0  0  0  0  0  0  0  0  0
    9.5978    2.2073    3.4540 H   0  0  0  0  0  0  0  0  0  0  0  0
    6.3947    3.4310  -12.1340 H   0  0  0  0  0  0  0  0  0  0  0  0
    4.3043    4.6649  -12.6664 H   0  0  0  0  0  0  0  0  0  0  0  0
    5.4735    5.7267  -11.8725 H   0  0  0  0  0  0  0  0  0  0  0  0
    4.0985    5.0879  -10.9538 H   0  0  0  0  0  0  0  0  0  0  0  0
    4.1906    2.2166  -12.1066 H   0  0  0  0  0  0  0  0  0  0  0  0
    5.4835    1.5133  -10.8349 H   0  0  0  0  0  0  0  0  0  0  0  0
    4.1789    2.5485  -10.1826 H   0  0  0  0  0  0  0  0  0  0  0  0
    6.0309    1.1381    3.5260 H   0  0  0  0  0  0  0  0  0  0  0  0
    4.3555    1.5395    3.0691 H   0  0  0  0  0  0  0  0  0  0  0  0
    5.2531    3.0574    4.3975 H   0  0  0  0  0  0  0  0  0  0  0  0
    5.1352    2.5206    0.9758 H   0  0  0  0  0  0  0  0  0  0  0  0
    6.9836   -0.5454   -5.1699 H   0  0  0  0  0  0  0  0  0  0  0  0
    7.2936   -2.2883   -5.0533 H   0  0  0  0  0  0  0  0  0  0  0  0
    6.9690   -1.5404   -6.6291 H   0  0  0  0  0  0  0  0  0  0  0  0
    9.5782   -1.8257   -3.9256 H   0  0  0  0  0  0  0  0  0  0  0  0
    9.0891   -0.1312   -3.9169 H   0  0  0  0  0  0  0  0  0  0  0  0
   11.7827   -1.3324   -4.6496 H   0  0  0  0  0  0  0  0  0  0  0  0
    9.6120   -3.2211   -6.0705 H   0  0  0  0  0  0  0  0  0  0  0  0
   10.6810   -2.0579   -6.8769 H   0  0  0  0  0  0  0  0  0  0  0  0
    9.1184   -2.4570   -7.5920 H   0  0  0  0  0  0  0  0  0  0  0  0
    9.0618   -0.2259   -6.4574 H   0  0  0  0  0  0  0  0  0  0  0  0
    6.7153    4.9674  -10.2012 H   0  0  0  0  0  0  0  0  0  0  0  0
   10.2740    3.2326   -8.6887 H   0  0  0  0  0  0  0  0  0  0  0  0
    9.2927    2.0651   -7.7837 H   0  0  0  0  0  0  0  0  0  0  0  0
   10.2462    4.8042   -6.7867 H   0  0  0  0  0  0  0  0  0  0  0  0
    9.1243    3.7560   -5.9179 H   0  0  0  0  0  0  0  0  0  0  0  0
   11.9096    2.8689   -6.7492 H   0  0  0  0  0  0  0  0  0  0  0  0
    8.3985    4.8845   -8.5883 H   0  0  0  0  0  0  0  0  0  0  0  0
    7.4213    3.7273   -7.6702 H   0  0  0  0  0  0  0  0  0  0  0  0
    7.4097    2.1760   -9.6179 H   0  0  0  0  0  0  0  0  0  0  0  0
    8.3758    3.3448  -10.5542 H   0  0  0  0  0  0  0  0  0  0  0  0
   12.5435    5.4812   -2.6853 H   0  0  0  0  0  0  0  0  0  0  0  0
   11.4829    5.3488   -0.5810 H   0  0  0  0  0  0  0  0  0  0  0  0
   11.4032    3.5710   -0.6090 H   0  0  0  0  0  0  0  0  0  0  0  0
    9.5730    5.5405   -1.9812 H   0  0  0  0  0  0  0  0  0  0  0  0
    9.1602    4.0251   -1.1350 H   0  0  0  0  0  0  0  0  0  0  0  0
    9.3010    4.1420   -3.8023 H   0  0  0  0  0  0  0  0  0  0  0  0
    9.8742    2.6787   -2.9581 H   0  0  0  0  0  0  0  0  0  0  0  0
  1 16  1  0  0  0  0 
 17  3  1  0  0  0  0 
 27 30  1  0  0  0  0 
 31  5  1  0  0  0  0 
 76  6  1  0  0  0  0 
 42  7  1  0  0  0  0 
 49  8  1  0  0  0  0 
 81  9  1  0  0  0  0 
 88 10  1  0  0  0  0 
 96 52  1  0  0  0  0 
 53 12  1  0  0  0  0 
  1 13  2  0  0  0  0 
  1 14  1  0  0  0  0 
  2 15  1  0  0  0  0 
 15 16  1  0  0  0  0 
 15 17  1  0  0  0  0 
 17 18  2  0  0  0  0 
 19  3  1  0  0  0  0 
 19 20  1  0  0  0  0 
 20 21  1  0  0  0  0 
 21 22  2  0  0  0  0 
 22 23  1  0  0  0  0 
 23 24  2  0  0  0  0 
 24 25  1  0  0  0  0 
 25 26  2  0  0  0  0 
 21 26  1  0  0  0  0 
 19 27  1  0  0  0  0 
 27 28  2  0  0  0  0 
  4 29  1  0  0  0  0 
 29 30  1  0  0  0  0 
 29 31  1  0  0  0  0 
 31 32  2  0  0  0  0 
 33  6  1  0  0  0  0 
 33 34  1  0  0  0  0 
 34 35  1  0  0  0  0 
 35 36  2  0  0  0  0 
 36 37  1  0  0  0  0 
 37 38  2  0  0  0  0 
 38 39  1  0  0  0  0 
 38 40  1  0  0  0  0 
 40 41  2  0  0  0  0 
 35 41  1  0  0  0  0 
 33 42  1  0  0  0  0 
 42 43  2  0  0  0  0 
 44  7  1  0  0  0  0 
 44 45  1  0  0  0  0 
 45 46  1  0  0  0  0 
 46 47  1  0  0  0  0 
 46 48  2  0  0  0  0 
 44 49  1  0  0  0  0 
 49 50  2  0  0  0  0 
 11 51  1  0  0  0  0 
 51 52  1  0  0  0  0 
 51 53  1  0  0  0  0 
 53 54  2  0  0  0  0 
  2 55  1  0  0  0  0 
 56 57  1  0  0  0  0 
 57 58  2  0  0  0  0 
 58 59  1  0  0  0  0 
 59 60  2  0  0  0  0 
 55 56  2  0  0  0  0 
 55 60  1  0  0  0  0 
 61 62  2  0  0  0  0 
 62 63  1  0  0  0  0 
 63 64  2  0  0  0  0 
 58 64  1  0  0  0  0 
 59 61  1  0  0  0  0 
 24 65  1  0  0  0  0 
  4 66  1  0  0  0  0 
 67 68  1  0  0  0  0 
 68 69  2  0  0  0  0 
 69 70  1  0  0  0  0 
 70 71  2  0  0  0  0 
 66 67  2  0  0  0  0 
 66 71  1  0  0  0  0 
  6 72  1  0  0  0  0 
 89 73  1  0  0  0  0 
 73 74  1  0  0  0  0 
 73 75  1  0  0  0  0 
 79  5  1  0  0  0  0 
 79 77  1  0  0  0  0 
 77 78  1  0  0  0  0 
 79 76  1  0  0  0  0 
 76 80  2  0  0  0  0 
 85 86  1  0  0  0  0 
 86 82  1  0  0  0  0 
 86 83  1  0  0  0  0 
 83 84  1  0  0  0  0 
 84  8  1  0  0  0  0 
 84 81  1  0  0  0  0 
 81 87  2  0  0  0  0 
 89 94  1  0  0  0  0 
 94 93  1  0  0  0  0 
 93 90  1  0  0  0  0 
 90 91  1  0  0  0  0 
 91 92  1  0  0  0  0 
 92  9  1  0  0  0  0 
 92 88  1  0  0  0  0 
 88 95  2  0  0  0  0 
101 96  2  0  0  0  0 
 97 96  1  0  0  0  0 
 97 98  1  0  0  0  0 
 98 99  1  0  0  0  0 
 99100  1  0  0  0  0 
100 10  1  0  0  0  0 
 97 10  1  0  0  0  0 
  2102  1  0  0  0  0 
  2103  1  0  0  0  0 
  3104  1  0  0  0  0 
  4105  1  0  0  0  0 
  4106  1  0  0  0  0 
  5107  1  0  0  0  0 
  7108  1  0  0  0  0 
  8109  1  0  0  0  0 
  9110  1  0  0  0  0 
 11111  1  0  0  0  0 
 11112  1  0  0  0  0 
 11113  1  0  0  0  0 
 12114  1  0  0  0  0 
 12115  1  0  0  0  0 
 14116  1  0  0  0  0 
 14117  1  0  0  0  0 
 14118  1  0  0  0  0 
 15119  1  0  0  0  0 
 16120  1  0  0  0  0 
 19121  1  0  0  0  0 
 20122  1  0  0  0  0 
 20123  1  0  0  0  0 
 22124  1  0  0  0  0 
 23125  1  0  0  0  0 
 25126  1  0  0  0  0 
 26127  1  0  0  0  0 
 29128  1  0  0  0  0 
 30129  1  0  0  0  0 
 33130  1  0  0  0  0 
 34131  1  0  0  0  0 
 34132  1  0  0  0  0 
 36133  1  0  0  0  0 
 37134  1  0  0  0  0 
 39135  1  0  0  0  0 
 40136  1  0  0  0  0 
 41137  1  0  0  0  0 
 44138  1  0  0  0  0 
 45139  1  0  0  0  0 
 45140  1  0  0  0  0 
 47141  1  0  0  0  0 
 47142  1  0  0  0  0 
 51143  1  0  0  0  0 
 52144  1  0  0  0  0 
 56145  1  0  0  0  0 
 57146  1  0  0  0  0 
 60147  1  0  0  0  0 
 61148  1  0  0  0  0 
 62149  1  0  0  0  0 
 63150  1  0  0  0  0 
 64151  1  0  0  0  0 
 67152  1  0  0  0  0 
 68153  1  0  0  0  0 
 69154  1  0  0  0  0 
 71155  1  0  0  0  0 
 72156  1  0  0  0  0 
 72157  1  0  0  0  0 
 72158  1  0  0  0  0 
 73159  1  0  0  0  0 
 74160  1  0  0  0  0 
 74161  1  0  0  0  0 
 74162  1  0  0  0  0 
 75163  1  0  0  0  0 
 75164  1  0  0  0  0 
 75165  1  0  0  0  0 
 77166  1  0  0  0  0 
 77167  1  0  0  0  0 
 78168  1  0  0  0  0 
 79169  1  0  0  0  0 
 82170  1  0  0  0  0 
 82171  1  0  0  0  0 
 82172  1  0  0  0  0 
 83173  1  0  0  0  0 
 83174  1  0  0  0  0 
 84175  1  0  0  0  0 
 85176  1  0  0  0  0 
 85177  1  0  0  0  0 
 85178  1  0  0  0  0 
 86179  1  0  0  0  0 
 89180  1  0  0  0  0 
 90181  1  0  0  0  0 
 90182  1  0  0  0  0 
 91183  1  0  0  0  0 
 91184  1  0  0  0  0 
 92185  1  0  0  0  0 
 93186  1  0  0  0  0 
 93187  1  0  0  0  0 
 94188  1  0  0  0  0 
 94189  1  0  0  0  0 
 97190  1  0  0  0  0 
 98191  1  0  0  0  0 
 98192  1  0  0  0  0 
 99193  1  0  0  0  0 
 99194  1  0  0  0  0 
100195  1  0  0  0  0 
100196  1  0  0  0  0 
M  END
> <cdk:Title>
abarelix

> <Conformer>
8

> <SuperDrugID>
SD000014

$$$$
abarelix
  CDK     0628171801

196201  0  0  0  0  0  0  0  0999 V2000
   -0.7476   -4.7360    4.3489 C   0  0  0  0  0  0  0  0  0  0  0  0
   -0.2269   -5.4188    1.2640 C   0  0  1  0  0  0  0  0  0  0  0  0
   -0.0813   -1.7775    2.5317 N   0  0  0  0  0  0  0  0  0  0  0  0
    4.2675   -1.2350    3.0848 C   0  0  2  0  0  0  0  0  0  0  0  0
    5.6730    0.5886    0.6429 N   0  0  0  0  0  0  0  0  0  0  0  0
    8.5425    1.5832    1.9761 N   0  0  0  0  0  0  0  0  0  0  0  0
   10.6236   -0.9393    0.4027 N   0  0  0  0  0  0  0  0  0  0  0  0
   12.1480    0.0604   -2.7004 N   0  0  0  0  0  0  0  0  0  0  0  0
   11.4962    1.7682   -4.8394 N   0  0  0  0  0  0  0  0  0  0  0  0
   12.0790    3.9911   -2.9914 N   0  0  0  0  0  0  0  0  0  0  0  0
   15.1159    2.4612    1.5582 C   0  0  0  0  0  0  0  0  0  0  0  0
   18.1860    3.3108    0.0697 N   0  0  0  0  0  0  0  0  0  0  0  0
    0.4807   -4.9938    4.3723 O   0  0  0  0  0  0  0  0  0  0  0  0
   -1.5307   -4.8477    5.5900 C   0  0  0  0  0  0  0  0  0  0  0  0
   -0.7543   -4.0975    1.9236 C   0  0  1  0  0  0  0  0  0  0  0  0
   -1.3748   -4.3308    3.2026 N   0  0  0  0  0  0  0  0  0  0  0  0
    0.2740   -3.0287    2.0933 C   0  0  0  0  0  0  0  0  0  0  0  0
    1.4807   -3.3221    1.9414 O   0  0  0  0  0  0  0  0  0  0  0  0
    0.8120   -0.8296    3.1491 C   0  0  2  0  0  0  0  0  0  0  0  0
    0.0584   -0.1416    4.3430 C   0  0  2  0  0  0  0  0  0  0  0  0
    0.8821    0.8537    5.0938 C   0  0  0  0  0  0  0  0  0  0  0  0
    1.9778    0.4188    5.8757 C   0  0  0  0  0  0  0  0  0  0  0  0
    2.8280    1.3429    6.5093 C   0  0  0  0  0  0  0  0  0  0  0  0
    2.5763    2.7242    6.3991 C   0  0  0  0  0  0  0  0  0  0  0  0
    1.4485    3.1694    5.6801 C   0  0  0  0  0  0  0  0  0  0  0  0
    0.6061    2.2424    5.0356 C   0  0  0  0  0  0  0  0  0  0  0  0
    1.3903    0.1650    2.1921 C   0  0  0  0  0  0  0  0  0  0  0  0
    0.6511    1.0989    1.8058 O   0  0  0  0  0  0  0  0  0  0  0  0
    3.6896   -0.7861    1.6964 C   0  0  1  0  0  0  0  0  0  0  0  0
    2.6717    0.2271    1.7007 N   0  0  0  0  0  0  0  0  0  0  0  0
    4.7513   -0.4333    0.6954 C   0  0  0  0  0  0  0  0  0  0  0  0
    4.8624   -1.1977   -0.2908 O   0  0  0  0  0  0  0  0  0  0  0  0
    9.0181    0.1961    1.8558 C   0  0  1  0  0  0  0  0  0  0  0  0
    8.0691   -0.9369    2.3573 C   0  0  2  0  0  0  0  0  0  0  0  0
    8.4543   -2.3378    2.0123 C   0  0  0  0  0  0  0  0  0  0  0  0
    8.1215   -2.8789    0.7443 C   0  0  0  0  0  0  0  0  0  0  0  0
    8.5024   -4.1860    0.3951 C   0  0  0  0  0  0  0  0  0  0  0  0
    9.2109   -4.9822    1.3145 C   0  0  0  0  0  0  0  0  0  0  0  0
    9.5882   -6.2432    0.9880 O   0  0  0  0  0  0  0  0  0  0  0  0
    9.5392   -4.4603    2.5804 C   0  0  0  0  0  0  0  0  0  0  0  0
    9.1653   -3.1472    2.9257 C   0  0  0  0  0  0  0  0  0  0  0  0
    9.5618   -0.0827    0.4966 C   0  0  0  0  0  0  0  0  0  0  0  0
    9.0157    0.3855   -0.5303 O   0  0  0  0  0  0  0  0  0  0  0  0
   11.2304   -1.4205   -0.8004 C   0  0  2  0  0  0  0  0  0  0  0  0
   12.0760   -2.6828   -0.4607 C   0  0  1  0  0  0  0  0  0  0  0  0
   12.5321   -3.4214   -1.6571 C   0  0  0  0  0  0  0  0  0  0  0  0
   11.6562   -4.0782   -2.4401 N   0  0  0  0  0  0  0  0  0  0  0  0
   13.7461   -3.4621   -1.9587 O   0  0  0  0  0  0  0  0  0  0  0  0
   12.0421   -0.3296   -1.4014 C   0  0  0  0  0  0  0  0  0  0  0  0
   12.7364    0.3661   -0.6243 O   0  0  0  0  0  0  0  0  0  0  0  0
   15.7429    2.9995    0.2462 C   0  0  1  0  0  0  0  0  0  0  0  0
   14.7796    3.8478   -0.3983 N   0  0  0  0  0  0  0  0  0  0  0  0
   16.9936    3.7480    0.5206 C   0  0  0  0  0  0  0  0  0  0  0  0
   16.9769    4.7999    1.2009 O   0  0  0  0  0  0  0  0  0  0  0  0
   -1.2127   -6.5391    1.2494 C   0  0  0  0  0  0  0  0  0  0  0  0
   -1.2447   -7.4699    2.3121 C   0  0  0  0  0  0  0  0  0  0  0  0
   -2.1643   -8.5310    2.3216 C   0  0  0  0  0  0  0  0  0  0  0  0
   -3.0713   -8.6971    1.2541 C   0  0  0  0  0  0  0  0  0  0  0  0
   -3.0445   -7.7768    0.1677 C   0  0  0  0  0  0  0  0  0  0  0  0
   -2.1212   -6.7051    0.1795 C   0  0  0  0  0  0  0  0  0  0  0  0
   -3.9400   -7.9559   -0.9112 C   0  0  0  0  0  0  0  0  0  0  0  0
   -4.8473   -9.0312   -0.9161 C   0  0  0  0  0  0  0  0  0  0  0  0
   -4.8783   -9.9330    0.1610 C   0  0  0  0  0  0  0  0  0  0  0  0
   -3.9957   -9.7682    1.2433 C   0  0  0  0  0  0  0  0  0  0  0  0
    3.6268    3.8397    7.1229 Cl  0  0  0  0  0  0  0  0  0  0  0  0
    4.2316   -2.6989    3.3769 C   0  0  0  0  0  0  0  0  0  0  0  0
    3.7237   -3.1775    4.6084 C   0  0  0  0  0  0  0  0  0  0  0  0
    3.7532   -4.5487    4.9109 C   0  0  0  0  0  0  0  0  0  0  0  0
    4.2683   -5.4469    3.9622 C   0  0  0  0  0  0  0  0  0  0  0  0
    4.7385   -4.9784    2.7791 N   0  0  0  0  0  0  0  0  0  0  0  0
    4.7428   -3.6558    2.4647 C   0  0  0  0  0  0  0  0  0  0  0  0
    9.3946    2.5115    2.7031 C   0  0  0  0  0  0  0  0  0  0  0  0
    6.8054    3.7572  -11.1241 C   0  0  2  0  0  0  0  0  0  0  0  0
    6.0003    4.9848  -11.6238 C   0  0  0  0  0  0  0  0  0  0  0  0
    5.8880    2.5094  -10.9989 C   0  0  0  0  0  0  0  0  0  0  0  0
    7.4233    2.1226    1.3332 C   0  0  0  0  0  0  0  0  0  0  0  0
    5.5753    1.7994    2.9689 C   0  0  1  0  0  0  0  0  0  0  0  0
    5.7967    3.1077    3.4942 O   0  0  0  0  0  0  0  0  0  0  0  0
    5.9805    1.7239    1.4719 C   0  0  2  0  0  0  0  0  0  0  0  0
    7.6215    3.1606    0.6545 O   0  0  0  0  0  0  0  0  0  0  0  0
   12.1076    0.5507   -4.9176 C   0  0  0  0  0  0  0  0  0  0  0  0
    8.0758   -1.3600   -5.4352 C   0  0  0  0  0  0  0  0  0  0  0  0
   10.1937   -0.8917   -4.0714 C   0  0  1  0  0  0  0  0  0  0  0  0
   11.7043   -0.5047   -3.9502 C   0  0  2  0  0  0  0  0  0  0  0  0
   10.3162   -2.2407   -6.2914 C   0  0  0  0  0  0  0  0  0  0  0  0
    9.6074   -1.0978   -5.5094 C   0  0  1  0  0  0  0  0  0  0  0  0
   13.0581    0.3392   -5.7075 O   0  0  0  0  0  0  0  0  0  0  0  0
   12.6084    3.7626   -4.2626 C   0  0  0  0  0  0  0  0  0  0  0  0
    7.4294    4.1230   -9.8232 N   0  0  1  0  0  0  0  0  0  0  0  0
   10.3768    3.1814   -7.4780 C   0  0  1  0  0  0  0  0  0  0  0  0
   10.8133    3.7847   -6.1116 C   0  0  1  0  0  0  0  0  0  0  0  0
   11.9564    3.0087   -5.3887 C   0  0  2  0  0  0  0  0  0  0  0  0
    9.1158    3.8988   -8.0384 C   0  0  2  0  0  0  0  0  0  0  0  0
    8.6452    3.3757   -9.4173 C   0  0  1  0  0  0  0  0  0  0  0  0
   13.7789    4.1595   -4.4858 O   0  0  0  0  0  0  0  0  0  0  0  0
   14.0183    3.5243   -1.4853 C   0  0  0  0  0  0  0  0  0  0  0  0
   12.8743    4.4090   -1.8509 C   0  0  2  0  0  0  0  0  0  0  0  0
   11.8757    4.4622   -0.6611 C   0  0  2  0  0  0  0  0  0  0  0  0
   10.5028    4.5811   -1.3199 C   0  0  2  0  0  0  0  0  0  0  0  0
   10.6945    3.8403   -2.6483 C   0  0  1  0  0  0  0  0  0  0  0  0
   14.2255    2.4642   -2.1215 O   0  0  0  0  0  0  0  0  0  0  0  0
    0.0856   -5.1961    0.2404 H   0  0  0  0  0  0  0  0  0  0  0  0
    0.6788   -5.7619    1.7734 H   0  0  0  0  0  0  0  0  0  0  0  0
   -1.0251   -1.5438    2.5104 H   0  0  0  0  0  0  0  0  0  0  0  0
    3.7673   -0.6717    3.8734 H   0  0  0  0  0  0  0  0  0  0  0  0
    5.3087   -0.9673    3.1733 H   0  0  0  0  0  0  0  0  0  0  0  0
    6.2401    0.5422   -0.1437 H   0  0  0  0  0  0  0  0  0  0  0  0
   11.0022   -1.2603    1.2372 H   0  0  0  0  0  0  0  0  0  0  0  0
   12.6817    0.8644   -2.8041 H   0  0  0  0  0  0  0  0  0  0  0  0
   10.7049    1.8130   -4.2825 H   0  0  0  0  0  0  0  0  0  0  0  0
   15.7923    1.7519    2.0392 H   0  0  0  0  0  0  0  0  0  0  0  0
   14.9080    3.2754    2.2569 H   0  0  0  0  0  0  0  0  0  0  0  0
   14.1766    1.9470    1.3420 H   0  0  0  0  0  0  0  0  0  0  0  0
   18.2414    2.5004   -0.4619 H   0  0  0  0  0  0  0  0  0  0  0  0
   18.9951    3.8040    0.2810 H   0  0  0  0  0  0  0  0  0  0  0  0
   -0.9093   -5.2227    6.4078 H   0  0  0  0  0  0  0  0  0  0  0  0
   -2.3649   -5.5360    5.4397 H   0  0  0  0  0  0  0  0  0  0  0  0
   -1.9248   -3.8651    5.8645 H   0  0  0  0  0  0  0  0  0  0  0  0
   -1.5242   -3.7018    1.2560 H   0  0  0  0  0  0  0  0  0  0  0  0
   -2.3308   -4.1715    3.2609 H   0  0  0  0  0  0  0  0  0  0  0  0
    1.6179   -1.3950    3.6052 H   0  0  0  0  0  0  0  0  0  0  0  0
   -0.2730   -0.9072    5.0516 H   0  0  0  0  0  0  0  0  0  0  0  0
   -0.8552    0.3308    3.9667 H   0  0  0  0  0  0  0  0  0  0  0  0
    2.1704   -0.5775    5.9867 H   0  0  0  0  0  0  0  0  0  0  0  0
    3.6258    1.0040    7.0523 H   0  0  0  0  0  0  0  0  0  0  0  0
    1.2377    4.1679    5.6153 H   0  0  0  0  0  0  0  0  0  0  0  0
   -0.1994    2.5921    4.5080 H   0  0  0  0  0  0  0  0  0  0  0  0
    3.1666   -1.6441    1.2731 H   0  0  0  0  0  0  0  0  0  0  0  0
    2.8933    1.0476    1.2308 H   0  0  0  0  0  0  0  0  0  0  0  0
    9.8804    0.0857    2.5263 H   0  0  0  0  0  0  0  0  0  0  0  0
    7.1035   -0.7933    1.9295 H   0  0  0  0  0  0  0  0  0  0  0  0
    7.9360   -0.8361    3.4376 H   0  0  0  0  0  0  0  0  0  0  0  0
    7.6108   -2.3169    0.0574 H   0  0  0  0  0  0  0  0  0  0  0  0
    8.2657   -4.5521   -0.5299 H   0  0  0  0  0  0  0  0  0  0  0  0
    9.2668   -6.3859    0.0732 H   0  0  0  0  0  0  0  0  0  0  0  0
   10.0537   -5.0339    3.2528 H   0  0  0  0  0  0  0  0  0  0  0  0
    9.4209   -2.7824    3.8459 H   0  0  0  0  0  0  0  0  0  0  0  0
   10.4191   -1.7254   -1.4493 H   0  0  0  0  0  0  0  0  0  0  0  0
   12.9354   -2.3940    0.1525 H   0  0  0  0  0  0  0  0  0  0  0  0
   11.4757   -3.3731    0.1379 H   0  0  0  0  0  0  0  0  0  0  0  0
   11.9685   -4.5554   -3.2255 H   0  0  0  0  0  0  0  0  0  0  0  0
   10.7110   -4.0775   -2.2196 H   0  0  0  0  0  0  0  0  0  0  0  0
   15.9795    2.1306   -0.3784 H   0  0  0  0  0  0  0  0  0  0  0  0
   14.6073    4.7099    0.0152 H   0  0  0  0  0  0  0  0  0  0  0  0
   -0.5930   -7.3845    3.0949 H   0  0  0  0  0  0  0  0  0  0  0  0
   -2.1586   -9.1811    3.1116 H   0  0  0  0  0  0  0  0  0  0  0  0
   -2.1019   -6.0426   -0.6003 H   0  0  0  0  0  0  0  0  0  0  0  0
   -3.9377   -7.3088   -1.7029 H   0  0  0  0  0  0  0  0  0  0  0  0
   -5.4884   -9.1566   -1.7025 H   0  0  0  0  0  0  0  0  0  0  0  0
   -5.5432  -10.7104    0.1563 H   0  0  0  0  0  0  0  0  0  0  0  0
   -4.0333  -10.4373    2.0159 H   0  0  0  0  0  0  0  0  0  0  0  0
    3.3408   -2.5338    5.3048 H   0  0  0  0  0  0  0  0  0  0  0  0
    3.4070   -4.8846    5.8112 H   0  0  0  0  0  0  0  0  0  0  0  0
    4.2893   -6.4491    4.1591 H   0  0  0  0  0  0  0  0  0  0  0  0
    5.1221   -3.3728    1.5569 H   0  0  0  0  0  0  0  0  0  0  0  0
   10.3586    2.6065    2.2018 H   0  0  0  0  0  0  0  0  0  0  0  0
    8.9698    3.5144    2.8008 H   0  0  0  0  0  0  0  0  0  0  0  0
    9.5638    2.1460    3.7184 H   0  0  0  0  0  0  0  0  0  0  0  0
    7.5821    3.5502  -11.8674 H   0  0  0  0  0  0  0  0  0  0  0  0
    5.5451    4.7776  -12.5944 H   0  0  0  0  0  0  0  0  0  0  0  0
    6.6608    5.8469  -11.7374 H   0  0  0  0  0  0  0  0  0  0  0  0
    5.2109    5.2429  -10.9142 H   0  0  0  0  0  0  0  0  0  0  0  0
    5.3849    2.3578  -12.0485 H   0  0  0  0  0  0  0  0  0  0  0  0
    6.5323    1.6503  -10.6445 H   0  0  0  0  0  0  0  0  0  0  0  0
    5.1772    2.7036  -10.1401 H   0  0  0  0  0  0  0  0  0  0  0  0
    6.1574    1.1044    3.5706 H   0  0  0  0  0  0  0  0  0  0  0  0
    4.5156    1.5926    3.0936 H   0  0  0  0  0  0  0  0  0  0  0  0
    5.4325    3.0813    4.4037 H   0  0  0  0  0  0  0  0  0  0  0  0
    5.3729    2.5019    1.0006 H   0  0  0  0  0  0  0  0  0  0  0  0
    7.5706   -0.5207   -4.9531 H   0  0  0  0  0  0  0  0  0  0  0  0
    7.8642   -2.2666   -4.8643 H   0  0  0  0  0  0  0  0  0  0  0  0
    7.6580   -1.4752   -6.4371 H   0  0  0  0  0  0  0  0  0  0  0  0
   10.0400   -1.8402   -3.5565 H   0  0  0  0  0  0  0  0  0  0  0  0
    9.6069   -0.1287   -3.5511 H   0  0  0  0  0  0  0  0  0  0  0  0
   12.3019   -1.4043   -4.1250 H   0  0  0  0  0  0  0  0  0  0  0  0
   10.2722   -3.1775   -5.7319 H   0  0  0  0  0  0  0  0  0  0  0  0
   11.3625   -1.9903   -6.4723 H   0  0  0  0  0  0  0  0  0  0  0  0
    9.8377   -2.3928   -7.2613 H   0  0  0  0  0  0  0  0  0  0  0  0
    9.7397   -0.1738   -6.0789 H   0  0  0  0  0  0  0  0  0  0  0  0
    7.7184    5.1012   -9.8998 H   0  0  0  0  0  0  0  0  0  0  0  0
   11.1996    3.2763   -8.1920 H   0  0  0  0  0  0  0  0  0  0  0  0
   10.1554    2.1189   -7.3506 H   0  0  0  0  0  0  0  0  0  0  0  0
   11.1383    4.8167   -6.2814 H   0  0  0  0  0  0  0  0  0  0  0  0
    9.9282    3.8118   -5.4789 H   0  0  0  0  0  0  0  0  0  0  0  0
   12.7186    2.8126   -6.1530 H   0  0  0  0  0  0  0  0  0  0  0  0
    9.3249    4.9689   -8.1246 H   0  0  0  0  0  0  0  0  0  0  0  0
    8.2949    3.7718   -7.3264 H   0  0  0  0  0  0  0  0  0  0  0  0
    8.4304    2.3073   -9.3446 H   0  0  0  0  0  0  0  0  0  0  0  0
    9.4373    3.5315  -10.1548 H   0  0  0  0  0  0  0  0  0  0  0  0
   13.2547    5.4169   -2.0481 H   0  0  0  0  0  0  0  0  0  0  0  0
   12.0718    5.3107    0.0007 H   0  0  0  0  0  0  0  0  0  0  0  0
   11.8927    3.5403   -0.0663 H   0  0  0  0  0  0  0  0  0  0  0  0
   10.2586    5.6338   -1.4969 H   0  0  0  0  0  0  0  0  0  0  0  0
    9.7165    4.1250   -0.7149 H   0  0  0  0  0  0  0  0  0  0  0  0
   10.0310    4.3066   -3.3718 H   0  0  0  0  0  0  0  0  0  0  0  0
   10.4377    2.7845   -2.5316 H   0  0  0  0  0  0  0  0  0  0  0  0
  1 16  1  0  0  0  0 
 17  3  1  0  0  0  0 
 27 30  1  0  0  0  0 
 31  5  1  0  0  0  0 
 76  6  1  0  0  0  0 
 42  7  1  0  0  0  0 
 49  8  1  0  0  0  0 
 81  9  1  0  0  0  0 
 88 10  1  0  0  0  0 
 96 52  1  0  0  0  0 
 53 12  1  0  0  0  0 
  1 13  2  0  0  0  0 
  1 14  1  0  0  0  0 
  2 15  1  0  0  0  0 
 15 16  1  0  0  0  0 
 15 17  1  0  0  0  0 
 17 18  2  0  0  0  0 
 19  3  1  0  0  0  0 
 19 20  1  0  0  0  0 
 20 21  1  0  0  0  0 
 21 22  2  0  0  0  0 
 22 23  1  0  0  0  0 
 23 24  2  0  0  0  0 
 24 25  1  0  0  0  0 
 25 26  2  0  0  0  0 
 21 26  1  0  0  0  0 
 19 27  1  0  0  0  0 
 27 28  2  0  0  0  0 
  4 29  1  0  0  0  0 
 29 30  1  0  0  0  0 
 29 31  1  0  0  0  0 
 31 32  2  0  0  0  0 
 33  6  1  0  0  0  0 
 33 34  1  0  0  0  0 
 34 35  1  0  0  0  0 
 35 36  2  0  0  0  0 
 36 37  1  0  0  0  0 
 37 38  2  0  0  0  0 
 38 39  1  0  0  0  0 
 38 40  1  0  0  0  0 
 40 41  2  0  0  0  0 
 35 41  1  0  0  0  0 
 33 42  1  0  0  0  0 
 42 43  2  0  0  0  0 
 44  7  1  0  0  0  0 
 44 45  1  0  0  0  0 
 45 46  1  0  0  0  0 
 46 47  1  0  0  0  0 
 46 48  2  0  0  0  0 
 44 49  1  0  0  0  0 
 49 50  2  0  0  0  0 
 11 51  1  0  0  0  0 
 51 52  1  0  0  0  0 
 51 53  1  0  0  0  0 
 53 54  2  0  0  0  0 
  2 55  1  0  0  0  0 
 56 57  1  0  0  0  0 
 57 58  2  0  0  0  0 
 58 59  1  0  0  0  0 
 59 60  2  0  0  0  0 
 55 56  2  0  0  0  0 
 55 60  1  0  0  0  0 
 61 62  2  0  0  0  0 
 62 63  1  0  0  0  0 
 63 64  2  0  0  0  0 
 58 64  1  0  0  0  0 
 59 61  1  0  0  0  0 
 24 65  1  0  0  0  0 
  4 66  1  0  0  0  0 
 67 68  1  0  0  0  0 
 68 69  2  0  0  0  0 
 69 70  1  0  0  0  0 
 70 71  2  0  0  0  0 
 66 67  2  0  0  0  0 
 66 71  1  0  0  0  0 
  6 72  1  0  0  0  0 
 89 73  1  0  0  0  0 
 73 74  1  0  0  0  0 
 73 75  1  0  0  0  0 
 79  5  1  0  0  0  0 
 79 77  1  0  0  0  0 
 77 78  1  0  0  0  0 
 79 76  1  0  0  0  0 
 76 80  2  0  0  0  0 
 85 86  1  0  0  0  0 
 86 82  1  0  0  0  0 
 86 83  1  0  0  0  0 
 83 84  1  0  0  0  0 
 84  8  1  0  0  0  0 
 84 81  1  0  0  0  0 
 81 87  2  0  0  0  0 
 89 94  1  0  0  0  0 
 94 93  1  0  0  0  0 
 93 90  1  0  0  0  0 
 90 91  1  0  0  0  0 
 91 92  1  0  0  0  0 
 92  9  1  0  0  0  0 
 92 88  1  0  0  0  0 
 88 95  2  0  0  0  0 
101 96  2  0  0  0  0 
 97 96  1  0  0  0  0 
 97 98  1  0  0  0  0 
 98 99  1  0  0  0  0 
 99100  1  0  0  0  0 
100 10  1  0  0  0  0 
 97 10  1  0  0  0  0 
  2102  1  0  0  0  0 
  2103  1  0  0  0  0 
  3104  1  0  0  0  0 
  4105  1  0  0  0  0 
  4106  1  0  0  0  0 
  5107  1  0  0  0  0 
  7108  1  0  0  0  0 
  8109  1  0  0  0  0 
  9110  1  0  0  0  0 
 11111  1  0  0  0  0 
 11112  1  0  0  0  0 
 11113  1  0  0  0  0 
 12114  1  0  0  0  0 
 12115  1  0  0  0  0 
 14116  1  0  0  0  0 
 14117  1  0  0  0  0 
 14118  1  0  0  0  0 
 15119  1  0  0  0  0 
 16120  1  0  0  0  0 
 19121  1  0  0  0  0 
 20122  1  0  0  0  0 
 20123  1  0  0  0  0 
 22124  1  0  0  0  0 
 23125  1  0  0  0  0 
 25126  1  0  0  0  0 
 26127  1  0  0  0  0 
 29128  1  0  0  0  0 
 30129  1  0  0  0  0 
 33130  1  0  0  0  0 
 34131  1  0  0  0  0 
 34132  1  0  0  0  0 
 36133  1  0  0  0  0 
 37134  1  0  0  0  0 
 39135  1  0  0  0  0 
 40136  1  0  0  0  0 
 41137  1  0  0  0  0 
 44138  1  0  0  0  0 
 45139  1  0  0  0  0 
 45140  1  0  0  0  0 
 47141  1  0  0  0  0 
 47142  1  0  0  0  0 
 51143  1  0  0  0  0 
 52144  1  0  0  0  0 
 56145  1  0  0  0  0 
 57146  1  0  0  0  0 
 60147  1  0  0  0  0 
 61148  1  0  0  0  0 
 62149  1  0  0  0  0 
 63150  1  0  0  0  0 
 64151  1  0  0  0  0 
 67152  1  0  0  0  0 
 68153  1  0  0  0  0 
 69154  1  0  0  0  0 
 71155  1  0  0  0  0 
 72156  1  0  0  0  0 
 72157  1  0  0  0  0 
 72158  1  0  0  0  0 
 73159  1  0  0  0  0 
 74160  1  0  0  0  0 
 74161  1  0  0  0  0 
 74162  1  0  0  0  0 
 75163  1  0  0  0  0 
 75164  1  0  0  0  0 
 75165  1  0  0  0  0 
 77166  1  0  0  0  0 
 77167  1  0  0  0  0 
 78168  1  0  0  0  0 
 79169  1  0  0  0  0 
 82170  1  0  0  0  0 
 82171  1  0  0  0  0 
 82172  1  0  0  0  0 
 83173  1  0  0  0  0 
 83174  1  0  0  0  0 
 84175  1  0  0  0  0 
 85176  1  0  0  0  0 
 85177  1  0  0  0  0 
 85178  1  0  0  0  0 
 86179  1  0  0  0  0 
 89180  1  0  0  0  0 
 90181  1  0  0  0  0 
 90182  1  0  0  0  0 
 91183  1  0  0  0  0 
 91184  1  0  0  0  0 
 92185  1  0  0  0  0 
 93186  1  0  0  0  0 
 93187  1  0  0  0  0 
 94188  1  0  0  0  0 
 94189  1  0  0  0  0 
 97190  1  0  0  0  0 
 98191  1  0  0  0  0 
 98192  1  0  0  0  0 
 99193  1  0  0  0  0 
 99194  1  0  0  0  0 
100195  1  0  0  0  0 
100196  1  0  0  0  0 
M  END
> <cdk:Title>
abarelix

> <Conformer>
9

> <SuperDrugID>
SD000014

$$$$
abarelix
  CDK     0628171801

196201  0  0  0  0  0  0  0  0999 V2000
   -3.6115   -2.4953    4.1548 C   0  0  0  0  0  0  0  0  0  0  0  0
   -1.7429   -5.3740    3.3820 C   0  0  1  0  0  0  0  0  0  0  0  0
   -0.4349   -1.8367    2.8669 N   0  0  0  0  0  0  0  0  0  0  0  0
   -0.8218    1.8661   -0.2688 C   0  0  2  0  0  0  0  0  0  0  0  0
    0.1268   -0.6001   -2.2930 N   0  0  0  0  0  0  0  0  0  0  0  0
   -2.6653   -0.5019   -4.2595 N   0  0  0  0  0  0  0  0  0  0  0  0
   -2.2134    2.0696   -6.6964 N   0  0  0  0  0  0  0  0  0  0  0  0
   -0.0894    2.1040   -9.6560 N   0  0  0  0  0  0  0  0  0  0  0  0
    2.4039    0.6714  -10.1038 N   0  0  0  0  0  0  0  0  0  0  0  0
    0.7456   -1.6928  -10.0018 N   0  0  0  0  0  0  0  0  0  0  0  0
   -4.9337   -0.5070  -10.4574 C   0  0  0  0  0  0  0  0  0  0  0  0
   -5.2154   -1.0316  -13.6719 N   0  0  0  0  0  0  0  0  0  0  0  0
   -4.2745   -2.4102    3.0937 O   0  0  0  0  0  0  0  0  0  0  0  0
   -4.1016   -1.8281    5.3698 C   0  0  0  0  0  0  0  0  0  0  0  0
   -1.7751   -3.8349    3.1196 C   0  0  1  0  0  0  0  0  0  0  0  0
   -2.4406   -3.1834    4.2176 N   0  0  0  0  0  0  0  0  0  0  0  0
   -0.4438   -3.1823    3.0428 C   0  0  0  0  0  0  0  0  0  0  0  0
    0.6205   -3.8156    3.2388 O   0  0  0  0  0  0  0  0  0  0  0  0
    0.6109   -0.9296    3.2301 C   0  0  2  0  0  0  0  0  0  0  0  0
    0.0113   -0.1224    4.4258 C   0  0  2  0  0  0  0  0  0  0  0  0
    0.9176    0.8647    5.0666 C   0  0  0  0  0  0  0  0  0  0  0  0
    2.0272    0.4267    5.8236 C   0  0  0  0  0  0  0  0  0  0  0  0
    2.8388    1.3495    6.5074 C   0  0  0  0  0  0  0  0  0  0  0  0
    2.5600    2.7280    6.4312 C   0  0  0  0  0  0  0  0  0  0  0  0
    1.4744    3.1798    5.6590 C   0  0  0  0  0  0  0  0  0  0  0  0
    0.6658    2.2533    4.9814 C   0  0  0  0  0  0  0  0  0  0  0  0
    0.9844   -0.0563    2.0906 C   0  0  0  0  0  0  0  0  0  0  0  0
    1.9889    0.6830    2.2297 O   0  0  0  0  0  0  0  0  0  0  0  0
    0.3927    0.9077   -0.1354 C   0  0  1  0  0  0  0  0  0  0  0  0
    0.2470   -0.0332    0.9372 N   0  0  0  0  0  0  0  0  0  0  0  0
    0.7761    0.2402   -1.4182 C   0  0  0  0  0  0  0  0  0  0  0  0
    1.9417    0.4755   -1.8167 O   0  0  0  0  0  0  0  0  0  0  0  0
   -2.5879    0.9280   -4.5733 C   0  0  1  0  0  0  0  0  0  0  0  0
   -2.1514    1.8361   -3.3889 C   0  0  2  0  0  0  0  0  0  0  0  0
   -2.0778    3.3074   -3.6477 C   0  0  0  0  0  0  0  0  0  0  0  0
   -0.8270    3.9604   -3.7790 C   0  0  0  0  0  0  0  0  0  0  0  0
   -0.7561    5.3490   -3.9968 C   0  0  0  0  0  0  0  0  0  0  0  0
   -1.9356    6.1116   -4.0892 C   0  0  0  0  0  0  0  0  0  0  0  0
   -1.8874    7.4507   -4.3030 O   0  0  0  0  0  0  0  0  0  0  0  0
   -3.1838    5.4744   -3.9632 C   0  0  0  0  0  0  0  0  0  0  0  0
   -3.2552    4.0844   -3.7512 C   0  0  0  0  0  0  0  0  0  0  0  0
   -1.7210    1.2298   -5.7444 C   0  0  0  0  0  0  0  0  0  0  0  0
   -0.5261    0.8473   -5.7630 O   0  0  0  0  0  0  0  0  0  0  0  0
   -1.4377    2.8775   -7.5916 C   0  0  2  0  0  0  0  0  0  0  0  0
   -2.1982    4.2244   -7.7715 C   0  0  1  0  0  0  0  0  0  0  0  0
   -1.3901    5.2720   -8.4284 C   0  0  0  0  0  0  0  0  0  0  0  0
   -0.3774    5.8696   -7.7749 N   0  0  0  0  0  0  0  0  0  0  0  0
   -1.6386    5.6321   -9.6014 O   0  0  0  0  0  0  0  0  0  0  0  0
   -1.2123    2.1821   -8.8825 C   0  0  0  0  0  0  0  0  0  0  0  0
   -2.1939    1.5826   -9.3782 O   0  0  0  0  0  0  0  0  0  0  0  0
   -3.9312   -0.8538  -11.5878 C   0  0  1  0  0  0  0  0  0  0  0  0
   -2.8529   -1.6039  -11.0149 N   0  0  0  0  0  0  0  0  0  0  0  0
   -4.5901   -1.6452  -12.6528 C   0  0  0  0  0  0  0  0  0  0  0  0
   -4.5998   -2.8977  -12.6348 O   0  0  0  0  0  0  0  0  0  0  0  0
   -3.0862   -5.9248    3.7352 C   0  0  0  0  0  0  0  0  0  0  0  0
   -3.4358   -6.1358    5.0896 C   0  0  0  0  0  0  0  0  0  0  0  0
   -4.7337   -6.5384    5.4470 C   0  0  0  0  0  0  0  0  0  0  0  0
   -5.7157   -6.7468    4.4555 C   0  0  0  0  0  0  0  0  0  0  0  0
   -5.3665   -6.5893    3.0824 C   0  0  0  0  0  0  0  0  0  0  0  0
   -4.0567   -6.1779    2.7380 C   0  0  0  0  0  0  0  0  0  0  0  0
   -6.3434   -6.8334    2.0891 C   0  0  0  0  0  0  0  0  0  0  0  0
   -7.6583   -7.1829    2.4509 C   0  0  0  0  0  0  0  0  0  0  0  0
   -8.0068   -7.3131    3.8062 C   0  0  0  0  0  0  0  0  0  0  0  0
   -7.0386   -7.1062    4.8045 C   0  0  0  0  0  0  0  0  0  0  0  0
    3.5266    3.8389    7.2620 Cl  0  0  0  0  0  0  0  0  0  0  0  0
   -1.3193    2.4581    0.9994 C   0  0  0  0  0  0  0  0  0  0  0  0
   -2.2211    1.7382    1.8165 C   0  0  0  0  0  0  0  0  0  0  0  0
   -2.7517    2.3176    2.9804 C   0  0  0  0  0  0  0  0  0  0  0  0
   -2.3572    3.6215    3.3265 C   0  0  0  0  0  0  0  0  0  0  0  0
   -1.4790    4.2959    2.5401 N   0  0  0  0  0  0  0  0  0  0  0  0
   -0.9573    3.7617    1.4058 C   0  0  0  0  0  0  0  0  0  0  0  0
   -3.8841   -1.2147   -4.5753 C   0  0  0  0  0  0  0  0  0  0  0  0
   10.2594   -1.2617   -8.7929 C   0  0  2  0  0  0  0  0  0  0  0  0
   11.0819   -2.5095   -8.3793 C   0  0  0  0  0  0  0  0  0  0  0  0
   10.4635   -0.1067   -7.7733 C   0  0  0  0  0  0  0  0  0  0  0  0
   -1.6039   -1.2503   -3.7823 C   0  0  0  0  0  0  0  0  0  0  0  0
   -2.2723   -1.2168   -1.3283 C   0  0  1  0  0  0  0  0  0  0  0  0
   -3.1071   -2.3714   -1.4021 O   0  0  0  0  0  0  0  0  0  0  0  0
   -1.1195   -1.3183   -2.3670 C   0  0  2  0  0  0  0  0  0  0  0  0
   -1.1091   -2.0729   -4.5893 O   0  0  0  0  0  0  0  0  0  0  0  0
    1.9963    1.8901  -10.5609 C   0  0  0  0  0  0  0  0  0  0  0  0
    4.1175    3.2163   -6.9318 C   0  0  0  0  0  0  0  0  0  0  0  0
    1.9340    2.9492   -8.2657 C   0  0  1  0  0  0  0  0  0  0  0  0
    1.2046    2.7434   -9.6350 C   0  0  2  0  0  0  0  0  0  0  0  0
    3.6938    4.7144   -8.9643 C   0  0  0  0  0  0  0  0  0  0  0  0
    3.4579    3.3121   -8.3342 C   0  0  1  0  0  0  0  0  0  0  0  0
    2.2042    2.2651  -11.7409 O   0  0  0  0  0  0  0  0  0  0  0  0
    1.6005   -1.2957  -11.0315 C   0  0  0  0  0  0  0  0  0  0  0  0
    8.8388   -1.6845   -8.9127 N   0  0  1  0  0  0  0  0  0  0  0  0
    5.4229   -0.5276  -10.3491 C   0  0  1  0  0  0  0  0  0  0  0  0
    4.0292   -1.1984  -10.2135 C   0  0  1  0  0  0  0  0  0  0  0  0
    2.8319   -0.4515  -10.8755 C   0  0  2  0  0  0  0  0  0  0  0  0
    6.5234   -1.4239   -9.7092 C   0  0  2  0  0  0  0  0  0  0  0  0
    7.9113   -0.7521   -9.5974 C   0  0  1  0  0  0  0  0  0  0  0  0
    1.2919   -1.5985  -12.2105 O   0  0  0  0  0  0  0  0  0  0  0  0
   -1.5337   -1.2677  -10.9722 C   0  0  0  0  0  0  0  0  0  0  0  0
   -0.6144   -2.1539  -10.2023 C   0  0  2  0  0  0  0  0  0  0  0  0
   -1.1786   -2.3453   -8.7665 C   0  0  2  0  0  0  0  0  0  0  0  0
    0.0620   -2.6015   -7.9220 C   0  0  2  0  0  0  0  0  0  0  0  0
    1.1008   -1.7154   -8.6104 C   0  0  1  0  0  0  0  0  0  0  0  0
   -1.1197   -0.2291  -11.5375 O   0  0  0  0  0  0  0  0  0  0  0  0
   -1.3610   -5.8790    2.4907 H   0  0  0  0  0  0  0  0  0  0  0  0
   -1.0368   -5.5835    4.1929 H   0  0  0  0  0  0  0  0  0  0  0  0
   -1.2638   -1.4322    2.5672 H   0  0  0  0  0  0  0  0  0  0  0  0
   -1.6534    1.3403   -0.7112 H   0  0  0  0  0  0  0  0  0  0  0  0
   -0.5527    2.6660   -0.9649 H   0  0  0  0  0  0  0  0  0  0  0  0
    0.6748   -0.7875   -3.0754 H   0  0  0  0  0  0  0  0  0  0  0  0
   -3.1744    2.2087   -6.7049 H   0  0  0  0  0  0  0  0  0  0  0  0
   -0.2217    1.5397  -10.4337 H   0  0  0  0  0  0  0  0  0  0  0  0
    2.3097    0.5179   -9.1508 H   0  0  0  0  0  0  0  0  0  0  0  0
   -5.8068    0.0157  -10.8575 H   0  0  0  0  0  0  0  0  0  0  0  0
   -5.2654   -1.4107   -9.9376 H   0  0  0  0  0  0  0  0  0  0  0  0
   -4.4598    0.1453   -9.7249 H   0  0  0  0  0  0  0  0  0  0  0  0
   -5.2361   -0.0623  -13.7116 H   0  0  0  0  0  0  0  0  0  0  0  0
   -5.6427   -1.5550  -14.3680 H   0  0  0  0  0  0  0  0  0  0  0  0
   -5.0494   -1.3177    5.1828 H   0  0  0  0  0  0  0  0  0  0  0  0
   -3.3686   -1.0912    5.7034 H   0  0  0  0  0  0  0  0  0  0  0  0
   -4.2518   -2.5653    6.1601 H   0  0  0  0  0  0  0  0  0  0  0  0
   -2.2881   -3.6539    2.1674 H   0  0  0  0  0  0  0  0  0  0  0  0
   -1.9988   -3.2225    5.0835 H   0  0  0  0  0  0  0  0  0  0  0  0
    1.5033   -1.4695    3.5690 H   0  0  0  0  0  0  0  0  0  0  0  0
   -0.3104   -0.8189    5.2064 H   0  0  0  0  0  0  0  0  0  0  0  0
   -0.9004    0.3768    4.0917 H   0  0  0  0  0  0  0  0  0  0  0  0
    2.2382   -0.5707    5.9020 H   0  0  0  0  0  0  0  0  0  0  0  0
    3.6312    1.0082    7.0574 H   0  0  0  0  0  0  0  0  0  0  0  0
    1.2623    4.1780    5.5920 H   0  0  0  0  0  0  0  0  0  0  0  0
   -0.1136    2.6018    4.4323 H   0  0  0  0  0  0  0  0  0  0  0  0
    1.2157    1.5862    0.1218 H   0  0  0  0  0  0  0  0  0  0  0  0
   -0.4605   -0.6889    0.8661 H   0  0  0  0  0  0  0  0  0  0  0  0
   -3.5991    1.2789   -4.8156 H   0  0  0  0  0  0  0  0  0  0  0  0
   -1.1737    1.4909   -3.0639 H   0  0  0  0  0  0  0  0  0  0  0  0
   -2.8586    1.6855   -2.5719 H   0  0  0  0  0  0  0  0  0  0  0  0
    0.0444    3.4272   -3.7207 H   0  0  0  0  0  0  0  0  0  0  0  0
    0.1567    5.8001   -4.0869 H   0  0  0  0  0  0  0  0  0  0  0  0
   -0.9379    7.6852   -4.3543 H   0  0  0  0  0  0  0  0  0  0  0  0
   -4.0448    6.0220   -4.0269 H   0  0  0  0  0  0  0  0  0  0  0  0
   -4.1741    3.6424   -3.6686 H   0  0  0  0  0  0  0  0  0  0  0  0
   -0.4997    3.0911   -7.0958 H   0  0  0  0  0  0  0  0  0  0  0  0
   -3.1159    4.0520   -8.3407 H   0  0  0  0  0  0  0  0  0  0  0  0
   -2.5043    4.6101   -6.7955 H   0  0  0  0  0  0  0  0  0  0  0  0
    0.1479    6.5575   -8.2150 H   0  0  0  0  0  0  0  0  0  0  0  0
   -0.1741    5.6175   -6.8595 H   0  0  0  0  0  0  0  0  0  0  0  0
   -3.5711    0.0864  -12.0204 H   0  0  0  0  0  0  0  0  0  0  0  0
   -3.0959   -2.4394  -10.5852 H   0  0  0  0  0  0  0  0  0  0  0  0
   -2.7496   -5.9730    5.8310 H   0  0  0  0  0  0  0  0  0  0  0  0
   -4.9567   -6.6692    6.4374 H   0  0  0  0  0  0  0  0  0  0  0  0
   -3.8084   -6.0445    1.7525 H   0  0  0  0  0  0  0  0  0  0  0  0
   -6.1073   -6.7533    1.0950 H   0  0  0  0  0  0  0  0  0  0  0  0
   -8.3641   -7.3326    1.7265 H   0  0  0  0  0  0  0  0  0  0  0  0
   -8.9672   -7.5509    4.0660 H   0  0  0  0  0  0  0  0  0  0  0  0
   -7.3096   -7.2133    5.7862 H   0  0  0  0  0  0  0  0  0  0  0  0
   -2.5057    0.7893    1.5597 H   0  0  0  0  0  0  0  0  0  0  0  0
   -3.4125    1.7969    3.5586 H   0  0  0  0  0  0  0  0  0  0  0  0
   -2.7211    4.0647    4.1711 H   0  0  0  0  0  0  0  0  0  0  0  0
   -0.3047    4.3186    0.8530 H   0  0  0  0  0  0  0  0  0  0  0  0
   -4.1266   -1.1038   -5.6343 H   0  0  0  0  0  0  0  0  0  0  0  0
   -3.8388   -2.2853   -4.3545 H   0  0  0  0  0  0  0  0  0  0  0  0
   -4.7023   -0.7971   -3.9875 H   0  0  0  0  0  0  0  0  0  0  0  0
   10.6247   -0.9349   -9.7711 H   0  0  0  0  0  0  0  0  0  0  0  0
   12.1431   -2.2629   -8.3012 H   0  0  0  0  0  0  0  0  0  0  0  0
   10.9712   -3.2996   -9.1251 H   0  0  0  0  0  0  0  0  0  0  0  0
   10.7388   -2.8913   -7.4151 H   0  0  0  0  0  0  0  0  0  0  0  0
   11.6223    0.0590   -7.6804 H   0  0  0  0  0  0  0  0  0  0  0  0
    9.8811    0.7866   -8.1487 H   0  0  0  0  0  0  0  0  0  0  0  0
    9.9314   -0.4071   -6.8215 H   0  0  0  0  0  0  0  0  0  0  0  0
   -2.9082   -0.3538   -1.5041 H   0  0  0  0  0  0  0  0  0  0  0  0
   -1.8781   -1.1767   -0.3198 H   0  0  0  0  0  0  0  0  0  0  0  0
   -3.8084   -2.2303   -0.7276 H   0  0  0  0  0  0  0  0  0  0  0  0
   -0.7616   -2.3447   -2.2222 H   0  0  0  0  0  0  0  0  0  0  0  0
    4.0116    2.2050   -6.5329 H   0  0  0  0  0  0  0  0  0  0  0  0
    3.6550    3.9170   -6.2348 H   0  0  0  0  0  0  0  0  0  0  0  0
    5.1835    3.4415   -7.0006 H   0  0  0  0  0  0  0  0  0  0  0  0
    1.4545    3.7704   -7.7331 H   0  0  0  0  0  0  0  0  0  0  0  0
    1.8008    2.0422   -7.6679 H   0  0  0  0  0  0  0  0  0  0  0  0
    1.0599    3.7266  -10.0900 H   0  0  0  0  0  0  0  0  0  0  0  0
    3.2269    5.4940   -8.3570 H   0  0  0  0  0  0  0  0  0  0  0  0
    3.2779    4.7628   -9.9726 H   0  0  0  0  0  0  0  0  0  0  0  0
    4.7628    4.9216   -9.0379 H   0  0  0  0  0  0  0  0  0  0  0  0
    3.9777    2.5798   -8.9578 H   0  0  0  0  0  0  0  0  0  0  0  0
    8.8399   -2.5401   -9.4731 H   0  0  0  0  0  0  0  0  0  0  0  0
    5.6588   -0.3600  -11.4035 H   0  0  0  0  0  0  0  0  0  0  0  0
    5.3985    0.4406   -9.8432 H   0  0  0  0  0  0  0  0  0  0  0  0
    4.0876   -2.2053  -10.6383 H   0  0  0  0  0  0  0  0  0  0  0  0
    3.8554   -1.2878   -9.1438 H   0  0  0  0  0  0  0  0  0  0  0  0
    3.1689   -0.1215  -11.8654 H   0  0  0  0  0  0  0  0  0  0  0  0
    6.6232   -2.3351  -10.3060 H   0  0  0  0  0  0  0  0  0  0  0  0
    6.2114   -1.7193   -8.7024 H   0  0  0  0  0  0  0  0  0  0  0  0
    7.8132    0.1699   -9.0210 H   0  0  0  0  0  0  0  0  0  0  0  0
    8.2863   -0.5120  -10.5956 H   0  0  0  0  0  0  0  0  0  0  0  0
   -0.5714   -3.1277  -10.7018 H   0  0  0  0  0  0  0  0  0  0  0  0
   -1.8829   -3.1796   -8.7055 H   0  0  0  0  0  0  0  0  0  0  0  0
   -1.6700   -1.4360   -8.3964 H   0  0  0  0  0  0  0  0  0  0  0  0
    0.3485   -3.6567   -7.9799 H   0  0  0  0  0  0  0  0  0  0  0  0
   -0.0792   -2.3197   -6.8800 H   0  0  0  0  0  0  0  0  0  0  0  0
    2.0632   -2.1814   -8.4291 H   0  0  0  0  0  0  0  0  0  0  0  0
    1.0764   -0.7111   -8.1803 H   0  0  0  0  0  0  0  0  0  0  0  0
  1 16  1  0  0  0  0 
 17  3  1  0  0  0  0 
 27 30  1  0  0  0  0 
 31  5  1  0  0  0  0 
 76  6  1  0  0  0  0 
 42  7  1  0  0  0  0 
 49  8  1  0  0  0  0 
 81  9  1  0  0  0  0 
 88 10  1  0  0  0  0 
 96 52  1  0  0  0  0 
 53 12  1  0  0  0  0 
  1 13  2  0  0  0  0 
  1 14  1  0  0  0  0 
  2 15  1  0  0  0  0 
 15 16  1  0  0  0  0 
 15 17  1  0  0  0  0 
 17 18  2  0  0  0  0 
 19  3  1  0  0  0  0 
 19 20  1  0  0  0  0 
 20 21  1  0  0  0  0 
 21 22  2  0  0  0  0 
 22 23  1  0  0  0  0 
 23 24  2  0  0  0  0 
 24 25  1  0  0  0  0 
 25 26  2  0  0  0  0 
 21 26  1  0  0  0  0 
 19 27  1  0  0  0  0 
 27 28  2  0  0  0  0 
  4 29  1  0  0  0  0 
 29 30  1  0  0  0  0 
 29 31  1  0  0  0  0 
 31 32  2  0  0  0  0 
 33  6  1  0  0  0  0 
 33 34  1  0  0  0  0 
 34 35  1  0  0  0  0 
 35 36  2  0  0  0  0 
 36 37  1  0  0  0  0 
 37 38  2  0  0  0  0 
 38 39  1  0  0  0  0 
 38 40  1  0  0  0  0 
 40 41  2  0  0  0  0 
 35 41  1  0  0  0  0 
 33 42  1  0  0  0  0 
 42 43  2  0  0  0  0 
 44  7  1  0  0  0  0 
 44 45  1  0  0  0  0 
 45 46  1  0  0  0  0 
 46 47  1  0  0  0  0 
 46 48  2  0  0  0  0 
 44 49  1  0  0  0  0 
 49 50  2  0  0  0  0 
 11 51  1  0  0  0  0 
 51 52  1  0  0  0  0 
 51 53  1  0  0  0  0 
 53 54  2  0  0  0  0 
  2 55  1  0  0  0  0 
 56 57  1  0  0  0  0 
 57 58  2  0  0  0  0 
 58 59  1  0  0  0  0 
 59 60  2  0  0  0  0 
 55 56  2  0  0  0  0 
 55 60  1  0  0  0  0 
 61 62  2  0  0  0  0 
 62 63  1  0  0  0  0 
 63 64  2  0  0  0  0 
 58 64  1  0  0  0  0 
 59 61  1  0  0  0  0 
 24 65  1  0  0  0  0 
  4 66  1  0  0  0  0 
 67 68  1  0  0  0  0 
 68 69  2  0  0  0  0 
 69 70  1  0  0  0  0 
 70 71  2  0  0  0  0 
 66 67  2  0  0  0  0 
 66 71  1  0  0  0  0 
  6 72  1  0  0  0  0 
 89 73  1  0  0  0  0 
 73 74  1  0  0  0  0 
 73 75  1  0  0  0  0 
 79  5  1  0  0  0  0 
 79 77  1  0  0  0  0 
 77 78  1  0  0  0  0 
 79 76  1  0  0  0  0 
 76 80  2  0  0  0  0 
 85 86  1  0  0  0  0 
 86 82  1  0  0  0  0 
 86 83  1  0  0  0  0 
 83 84  1  0  0  0  0 
 84  8  1  0  0  0  0 
 84 81  1  0  0  0  0 
 81 87  2  0  0  0  0 
 89 94  1  0  0  0  0 
 94 93  1  0  0  0  0 
 93 90  1  0  0  0  0 
 90 91  1  0  0  0  0 
 91 92  1  0  0  0  0 
 92  9  1  0  0  0  0 
 92 88  1  0  0  0  0 
 88 95  2  0  0  0  0 
101 96  2  0  0  0  0 
 97 96  1  0  0  0  0 
 97 98  1  0  0  0  0 
 98 99  1  0  0  0  0 
 99100  1  0  0  0  0 
100 10  1  0  0  0  0 
 97 10  1  0  0  0  0 
  2102  1  0  0  0  0 
  2103  1  0  0  0  0 
  3104  1  0  0  0  0 
  4105  1  0  0  0  0 
  4106  1  0  0  0  0 
  5107  1  0  0  0  0 
  7108  1  0  0  0  0 
  8109  1  0  0  0  0 
  9110  1  0  0  0  0 
 11111  1  0  0  0  0 
 11112  1  0  0  0  0 
 11113  1  0  0  0  0 
 12114  1  0  0  0  0 
 12115  1  0  0  0  0 
 14116  1  0  0  0  0 
 14117  1  0  0  0  0 
 14118  1  0  0  0  0 
 15119  1  0  0  0  0 
 16120  1  0  0  0  0 
 19121  1  0  0  0  0 
 20122  1  0  0  0  0 
 20123  1  0  0  0  0 
 22124  1  0  0  0  0 
 23125  1  0  0  0  0 
 25126  1  0  0  0  0 
 26127  1  0  0  0  0 
 29128  1  0  0  0  0 
 30129  1  0  0  0  0 
 33130  1  0  0  0  0 
 34131  1  0  0  0  0 
 34132  1  0  0  0  0 
 36133  1  0  0  0  0 
 37134  1  0  0  0  0 
 39135  1  0  0  0  0 
 40136  1  0  0  0  0 
 41137  1  0  0  0  0 
 44138  1  0  0  0  0 
 45139  1  0  0  0  0 
 45140  1  0  0  0  0 
 47141  1  0  0  0  0 
 47142  1  0  0  0  0 
 51143  1  0  0  0  0 
 52144  1  0  0  0  0 
 56145  1  0  0  0  0 
 57146  1  0  0  0  0 
 60147  1  0  0  0  0 
 61148  1  0  0  0  0 
 62149  1  0  0  0  0 
 63150  1  0  0  0  0 
 64151  1  0  0  0  0 
 67152  1  0  0  0  0 
 68153  1  0  0  0  0 
 69154  1  0  0  0  0 
 71155  1  0  0  0  0 
 72156  1  0  0  0  0 
 72157  1  0  0  0  0 
 72158  1  0  0  0  0 
 73159  1  0  0  0  0 
 74160  1  0  0  0  0 
 74161  1  0  0  0  0 
 74162  1  0  0  0  0 
 75163  1  0  0  0  0 
 75164  1  0  0  0  0 
 75165  1  0  0  0  0 
 77166  1  0  0  0  0 
 77167  1  0  0  0  0 
 78168  1  0  0  0  0 
 79169  1  0  0  0  0 
 82170  1  0  0  0  0 
 82171  1  0  0  0  0 
 82172  1  0  0  0  0 
 83173  1  0  0  0  0 
 83174  1  0  0  0  0 
 84175  1  0  0  0  0 
 85176  1  0  0  0  0 
 85177  1  0  0  0  0 
 85178  1  0  0  0  0 
 86179  1  0  0  0  0 
 89180  1  0  0  0  0 
 90181  1  0  0  0  0 
 90182  1  0  0  0  0 
 91183  1  0  0  0  0 
 91184  1  0  0  0  0 
 92185  1  0  0  0  0 
 93186  1  0  0  0  0 
 93187  1  0  0  0  0 
 94188  1  0  0  0  0 
 94189  1  0  0  0  0 
 97190  1  0  0  0  0 
 98191  1  0  0  0  0 
 98192  1  0  0  0  0 
 99193  1  0  0  0  0 
 99194  1  0  0  0  0 
100195  1  0  0  0  0 
100196  1  0  0  0  0 
M  END
> <cdk:Title>
abarelix

> <Conformer>
10

> <SuperDrugID>
SD000014

$$$$
