acebutolol
  CDK     0628171801

 52 52  0  0  0  0  0  0  0  0999 V2000
    3.3518   -1.5746   -0.4266 O   0  0  0  0  0  0  0  0  0  0  0  0
    4.2072   -0.9662    0.5692 C   0  0  1  0  0  0  0  0  0  0  0  0
    2.1296   -1.9240    0.0948 C   0  0  0  0  0  0  0  0  0  0  0  0
    5.4609   -0.3263   -0.0744 C   0  0  2  0  0  0  0  0  0  0  0  0
    1.0156   -1.0371    0.0678 C   0  0  0  0  0  0  0  0  0  0  0  0
    2.0246   -3.1884    0.7054 C   0  0  0  0  0  0  0  0  0  0  0  0
    6.3787   -1.3569   -0.7750 C   0  0  2  0  0  0  0  0  0  0  0  0
    6.1952    0.3435    0.9504 O   0  0  0  0  0  0  0  0  0  0  0  0
    1.0822    0.2179   -0.6245 C   0  0  0  0  0  0  0  0  0  0  0  0
   -0.1571   -1.4340    0.7662 C   0  0  0  0  0  0  0  0  0  0  0  0
    0.8487   -3.5600    1.3691 C   0  0  0  0  0  0  0  0  0  0  0  0
    7.6503   -0.7090   -1.1747 N   0  0  1  0  0  0  0  0  0  0  0  0
    0.1586    1.3516   -0.3934 C   0  0  0  0  0  0  0  0  0  0  0  0
    1.9577    0.4049   -1.5015 O   0  0  0  0  0  0  0  0  0  0  0  0
   -0.2492   -2.6814    1.4311 C   0  0  0  0  0  0  0  0  0  0  0  0
    8.5957   -1.5323   -1.9699 C   0  0  1  0  0  0  0  0  0  0  0  0
   -1.3034   -3.0942    2.1975 N   0  0  0  0  0  0  0  0  0  0  0  0
    9.7153   -0.5845   -2.4680 C   0  0  0  0  0  0  0  0  0  0  0  0
    9.1904   -2.7125   -1.1530 C   0  0  0  0  0  0  0  0  0  0  0  0
   -2.6181   -2.7375    2.1359 C   0  0  0  0  0  0  0  0  0  0  0  0
   -3.5374   -3.2495    3.1754 C   0  0  2  0  0  0  0  0  0  0  0  0
   -3.0811   -2.0063    1.2292 O   0  0  0  0  0  0  0  0  0  0  0  0
   -3.3515   -2.4833    4.5140 C   0  0  1  0  0  0  0  0  0  0  0  0
   -4.3289   -2.9537    5.6151 C   0  0  0  0  0  0  0  0  0  0  0  0
    3.6778   -0.1748    1.1126 H   0  0  0  0  0  0  0  0  0  0  0  0
    4.5273   -1.7202    1.2951 H   0  0  0  0  0  0  0  0  0  0  0  0
    5.1428    0.4241   -0.8047 H   0  0  0  0  0  0  0  0  0  0  0  0
    2.8167   -3.8342    0.6899 H   0  0  0  0  0  0  0  0  0  0  0  0
    5.8661   -1.7549   -1.6549 H   0  0  0  0  0  0  0  0  0  0  0  0
    6.5847   -2.1770   -0.0824 H   0  0  0  0  0  0  0  0  0  0  0  0
    5.5698    0.9999    1.3208 H   0  0  0  0  0  0  0  0  0  0  0  0
   -0.9526   -0.7999    0.8162 H   0  0  0  0  0  0  0  0  0  0  0  0
    0.8050   -4.4750    1.8246 H   0  0  0  0  0  0  0  0  0  0  0  0
    7.4029    0.0971   -1.7540 H   0  0  0  0  0  0  0  0  0  0  0  0
    0.4339    2.2225   -0.9925 H   0  0  0  0  0  0  0  0  0  0  0  0
   -0.8579    1.0724   -0.6659 H   0  0  0  0  0  0  0  0  0  0  0  0
    0.1854    1.6391    0.6574 H   0  0  0  0  0  0  0  0  0  0  0  0
    8.0779   -1.9344   -2.8478 H   0  0  0  0  0  0  0  0  0  0  0  0
   -1.0828   -3.7451    2.8839 H   0  0  0  0  0  0  0  0  0  0  0  0
   10.4077   -1.1190   -3.1213 H   0  0  0  0  0  0  0  0  0  0  0  0
   10.2728   -0.1749   -1.6224 H   0  0  0  0  0  0  0  0  0  0  0  0
    9.2853    0.2440   -3.0349 H   0  0  0  0  0  0  0  0  0  0  0  0
    9.9960   -3.1966   -1.7077 H   0  0  0  0  0  0  0  0  0  0  0  0
    8.4275   -3.4663   -0.9520 H   0  0  0  0  0  0  0  0  0  0  0  0
    9.5860   -2.3554   -0.2005 H   0  0  0  0  0  0  0  0  0  0  0  0
   -3.3534   -4.3180    3.3241 H   0  0  0  0  0  0  0  0  0  0  0  0
   -4.5721   -3.1417    2.8380 H   0  0  0  0  0  0  0  0  0  0  0  0
   -2.3274   -2.6186    4.8756 H   0  0  0  0  0  0  0  0  0  0  0  0
   -3.5089   -1.4130    4.3483 H   0  0  0  0  0  0  0  0  0  0  0  0
   -4.1607   -2.3830    6.5303 H   0  0  0  0  0  0  0  0  0  0  0  0
   -4.1746   -4.0110    5.8382 H   0  0  0  0  0  0  0  0  0  0  0  0
   -5.3627   -2.8027    5.2983 H   0  0  0  0  0  0  0  0  0  0  0  0
  1  2  1  0  0  0  0 
  1  3  1  0  0  0  0 
  4  2  1  0  0  0  0 
  3  5  2  0  0  0  0 
  3  6  1  0  0  0  0 
  4  7  1  0  0  0  0 
  4  8  1  0  0  0  0 
  5  9  1  0  0  0  0 
  5 10  1  0  0  0  0 
  6 11  2  0  0  0  0 
  7 12  1  0  0  0  0 
  9 13  1  0  0  0  0 
  9 14  2  0  0  0  0 
 10 15  2  0  0  0  0 
 11 15  1  0  0  0  0 
 12 16  1  0  0  0  0 
 15 17  1  0  0  0  0 
 16 18  1  0  0  0  0 
 16 19  1  0  0  0  0 
 17 20  1  0  0  0  0 
 20 21  1  0  0  0  0 
 20 22  2  0  0  0  0 
 21 23  1  0  0  0  0 
 23 24  1  0  0  0  0 
 25  2  1  0  0  0  0 
 26  2  1  0  0  0  0 
 27  4  1  0  0  0  0 
 28  6  1  0  0  0  0 
 29  7  1  0  0  0  0 
 30  7  1  0  0  0  0 
 31  8  1  0  0  0  0 
 32 10  1  0  0  0  0 
 33 11  1  0  0  0  0 
 34 12  1  0  0  0  0 
 35 13  1  0  0  0  0 
 36 13  1  0  0  0  0 
 37 13  1  0  0  0  0 
 38 16  1  0  0  0  0 
 39 17  1  0  0  0  0 
 40 18  1  0  0  0  0 
 41 18  1  0  0  0  0 
 42 18  1  0  0  0  0 
 43 19  1  0  0  0  0 
 44 19  1  0  0  0  0 
 45 19  1  0  0  0  0 
 46 21  1  0  0  0  0 
 47 21  1  0  0  0  0 
 48 23  1  0  0  0  0 
 49 23  1  0  0  0  0 
 50 24  1  0  0  0  0 
 51 24  1  0  0  0  0 
 52 24  1  0  0  0  0 
M  END
> <cdk:Title>
acebutolol

> <Conformer>
1

> <SuperDrugID>
SD000018

$$$$
acebutolol
  CDK     0628171801

 52 52  0  0  0  0  0  0  0  0999 V2000
    3.3324   -1.4747   -0.3964 O   0  0  0  0  0  0  0  0  0  0  0  0
    4.1734   -0.9010    0.6325 C   0  0  2  0  0  0  0  0  0  0  0  0
    2.1199   -1.8884    0.1021 C   0  0  0  0  0  0  0  0  0  0  0  0
    5.4372   -0.2305    0.0367 C   0  0  2  0  0  0  0  0  0  0  0  0
    0.9849   -1.0361    0.0574 C   0  0  0  0  0  0  0  0  0  0  0  0
    2.0378   -3.1531    0.7194 C   0  0  0  0  0  0  0  0  0  0  0  0
    5.1327    0.9980   -0.8622 C   0  0  2  0  0  0  0  0  0  0  0  0
    6.1887   -1.1930   -0.7006 O   0  0  0  0  0  0  0  0  0  0  0  0
    1.0296    0.2132   -0.6353 C   0  0  0  0  0  0  0  0  0  0  0  0
   -0.1788   -1.4457    0.7545 C   0  0  0  0  0  0  0  0  0  0  0  0
    0.8669   -3.5442    1.3854 C   0  0  0  0  0  0  0  0  0  0  0  0
    6.4071    1.6721   -1.2104 N   0  0  1  0  0  0  0  0  0  0  0  0
    0.3101    1.4253   -0.1813 C   0  0  0  0  0  0  0  0  0  0  0  0
    1.7213    0.3170   -1.6769 O   0  0  0  0  0  0  0  0  0  0  0  0
   -0.2495   -2.6879    1.4316 C   0  0  0  0  0  0  0  0  0  0  0  0
    6.3210    3.0020   -1.8697 C   0  0  1  0  0  0  0  0  0  0  0  0
   -1.3041   -3.1032    2.1947 N   0  0  0  0  0  0  0  0  0  0  0  0
    7.7546    3.5916   -1.9016 C   0  0  0  0  0  0  0  0  0  0  0  0
    5.7245    2.9257   -3.3003 C   0  0  0  0  0  0  0  0  0  0  0  0
   -2.6053   -2.7031    2.1468 C   0  0  0  0  0  0  0  0  0  0  0  0
   -3.5337   -3.1181    3.2168 C   0  0  2  0  0  0  0  0  0  0  0  0
   -3.0569   -1.9694    1.2361 O   0  0  0  0  0  0  0  0  0  0  0  0
   -4.7168   -3.9781    2.6983 C   0  0  1  0  0  0  0  0  0  0  0  0
   -5.8412   -4.1153    3.7508 C   0  0  0  0  0  0  0  0  0  0  0  0
    4.4952   -1.6899    1.3188 H   0  0  0  0  0  0  0  0  0  0  0  0
    3.6370   -0.1481    1.2185 H   0  0  0  0  0  0  0  0  0  0  0  0
    6.0633    0.1048    0.8701 H   0  0  0  0  0  0  0  0  0  0  0  0
    2.8434   -3.7825    0.7092 H   0  0  0  0  0  0  0  0  0  0  0  0
    4.4781    1.6903   -0.3253 H   0  0  0  0  0  0  0  0  0  0  0  0
    4.6265    0.6710   -1.7731 H   0  0  0  0  0  0  0  0  0  0  0  0
    6.4239   -1.8831   -0.0456 H   0  0  0  0  0  0  0  0  0  0  0  0
   -0.9785   -0.8160    0.7904 H   0  0  0  0  0  0  0  0  0  0  0  0
    0.8418   -4.4551    1.8508 H   0  0  0  0  0  0  0  0  0  0  0  0
    6.8865    1.8375   -0.3214 H   0  0  0  0  0  0  0  0  0  0  0  0
    0.6627    2.3087   -0.7207 H   0  0  0  0  0  0  0  0  0  0  0  0
   -0.7632    1.3232   -0.3541 H   0  0  0  0  0  0  0  0  0  0  0  0
    0.4873    1.5811    0.8850 H   0  0  0  0  0  0  0  0  0  0  0  0
    5.6987    3.6704   -1.2627 H   0  0  0  0  0  0  0  0  0  0  0  0
   -1.0911   -3.7682    2.8708 H   0  0  0  0  0  0  0  0  0  0  0  0
    7.7518    4.5932   -2.3375 H   0  0  0  0  0  0  0  0  0  0  0  0
    8.4173    2.9539   -2.4913 H   0  0  0  0  0  0  0  0  0  0  0  0
    8.1540    3.6656   -0.8876 H   0  0  0  0  0  0  0  0  0  0  0  0
    5.7829    3.8999   -3.7917 H   0  0  0  0  0  0  0  0  0  0  0  0
    4.6738    2.6360   -3.2586 H   0  0  0  0  0  0  0  0  0  0  0  0
    6.2684    2.1944   -3.9017 H   0  0  0  0  0  0  0  0  0  0  0  0
   -3.9132   -2.2056    3.6843 H   0  0  0  0  0  0  0  0  0  0  0  0
   -2.9987   -3.6822    3.9870 H   0  0  0  0  0  0  0  0  0  0  0  0
   -5.1439   -3.5309    1.7964 H   0  0  0  0  0  0  0  0  0  0  0  0
   -4.3537   -4.9753    2.4363 H   0  0  0  0  0  0  0  0  0  0  0  0
   -6.6281   -4.7681    3.3675 H   0  0  0  0  0  0  0  0  0  0  0  0
   -6.2745   -3.1357    3.9704 H   0  0  0  0  0  0  0  0  0  0  0  0
   -5.4488   -4.5469    4.6741 H   0  0  0  0  0  0  0  0  0  0  0  0
  1  2  1  0  0  0  0 
  1  3  1  0  0  0  0 
  4  2  1  0  0  0  0 
  3  5  2  0  0  0  0 
  3  6  1  0  0  0  0 
  4  7  1  0  0  0  0 
  4  8  1  0  0  0  0 
  5  9  1  0  0  0  0 
  5 10  1  0  0  0  0 
  6 11  2  0  0  0  0 
  7 12  1  0  0  0  0 
  9 13  1  0  0  0  0 
  9 14  2  0  0  0  0 
 10 15  2  0  0  0  0 
 11 15  1  0  0  0  0 
 12 16  1  0  0  0  0 
 15 17  1  0  0  0  0 
 16 18  1  0  0  0  0 
 16 19  1  0  0  0  0 
 17 20  1  0  0  0  0 
 20 21  1  0  0  0  0 
 20 22  2  0  0  0  0 
 21 23  1  0  0  0  0 
 23 24  1  0  0  0  0 
 25  2  1  0  0  0  0 
 26  2  1  0  0  0  0 
 27  4  1  0  0  0  0 
 28  6  1  0  0  0  0 
 29  7  1  0  0  0  0 
 30  7  1  0  0  0  0 
 31  8  1  0  0  0  0 
 32 10  1  0  0  0  0 
 33 11  1  0  0  0  0 
 34 12  1  0  0  0  0 
 35 13  1  0  0  0  0 
 36 13  1  0  0  0  0 
 37 13  1  0  0  0  0 
 38 16  1  0  0  0  0 
 39 17  1  0  0  0  0 
 40 18  1  0  0  0  0 
 41 18  1  0  0  0  0 
 42 18  1  0  0  0  0 
 43 19  1  0  0  0  0 
 44 19  1  0  0  0  0 
 45 19  1  0  0  0  0 
 46 21  1  0  0  0  0 
 47 21  1  0  0  0  0 
 48 23  1  0  0  0  0 
 49 23  1  0  0  0  0 
 50 24  1  0  0  0  0 
 51 24  1  0  0  0  0 
 52 24  1  0  0  0  0 
M  END
> <cdk:Title>
acebutolol

> <Conformer>
2

> <SuperDrugID>
SD000018

$$$$
acebutolol
  CDK     0628171801

 52 52  0  0  0  0  0  0  0  0999 V2000
    3.1963   -1.9133   -0.8920 O   0  0  0  0  0  0  0  0  0  0  0  0
    4.0812   -1.1357   -0.0505 C   0  0  1  0  0  0  0  0  0  0  0  0
    2.0163   -2.1730   -0.2433 C   0  0  0  0  0  0  0  0  0  0  0  0
    5.3442   -0.6789   -0.8157 C   0  0  2  0  0  0  0  0  0  0  0  0
    0.9195   -1.2670   -0.2969 C   0  0  0  0  0  0  0  0  0  0  0  0
    1.9539   -3.3362    0.5498 C   0  0  0  0  0  0  0  0  0  0  0  0
    6.1973   -1.8615   -1.3335 C   0  0  2  0  0  0  0  0  0  0  0  0
    6.1314    0.1393    0.0506 O   0  0  0  0  0  0  0  0  0  0  0  0
    0.8985   -0.1625   -1.2149 C   0  0  0  0  0  0  0  0  0  0  0  0
   -0.1450   -1.4864    0.6152 C   0  0  0  0  0  0  0  0  0  0  0  0
    0.8571   -3.5599    1.3940 C   0  0  0  0  0  0  0  0  0  0  0  0
    7.4839   -1.3609   -1.8685 N   0  0  1  0  0  0  0  0  0  0  0  0
   -0.0589    0.9658   -1.1398 C   0  0  0  0  0  0  0  0  0  0  0  0
    1.7068   -0.1217   -2.1731 O   0  0  0  0  0  0  0  0  0  0  0  0
   -0.1901   -2.6217    1.4622 C   0  0  0  0  0  0  0  0  0  0  0  0
    8.3328   -2.3474   -2.5835 C   0  0  1  0  0  0  0  0  0  0  0  0
   -1.1492   -2.8580    2.4042 N   0  0  0  0  0  0  0  0  0  0  0  0
    9.4186   -1.5555   -3.3512 C   0  0  0  0  0  0  0  0  0  0  0  0
    8.9755   -3.3737   -1.6146 C   0  0  0  0  0  0  0  0  0  0  0  0
   -2.4362   -2.4156    2.4465 C   0  0  0  0  0  0  0  0  0  0  0  0
   -3.2268   -2.6253    3.6749 C   0  0  2  0  0  0  0  0  0  0  0  0
   -2.9814   -1.8165    1.4904 O   0  0  0  0  0  0  0  0  0  0  0  0
   -4.3911   -3.6313    3.4895 C   0  0  1  0  0  0  0  0  0  0  0  0
   -5.3142   -3.6767    4.7269 C   0  0  0  0  0  0  0  0  0  0  0  0
    3.5779   -0.2324    0.3113 H   0  0  0  0  0  0  0  0  0  0  0  0
    4.3866   -1.7291    0.8174 H   0  0  0  0  0  0  0  0  0  0  0  0
    5.0384   -0.0670   -1.6688 H   0  0  0  0  0  0  0  0  0  0  0  0
    2.7265   -4.0063    0.5361 H   0  0  0  0  0  0  0  0  0  0  0  0
    5.6441   -2.3809   -2.1193 H   0  0  0  0  0  0  0  0  0  0  0  0
    6.3892   -2.5595   -0.5169 H   0  0  0  0  0  0  0  0  0  0  0  0
    5.5613    0.9074    0.2647 H   0  0  0  0  0  0  0  0  0  0  0  0
   -0.8905   -0.7948    0.6835 H   0  0  0  0  0  0  0  0  0  0  0  0
    0.8414   -4.4051    1.9759 H   0  0  0  0  0  0  0  0  0  0  0  0
    7.2486   -0.6287   -2.5428 H   0  0  0  0  0  0  0  0  0  0  0  0
    0.1240    1.7012   -1.9275 H   0  0  0  0  0  0  0  0  0  0  0  0
   -1.0828    0.6066   -1.2532 H   0  0  0  0  0  0  0  0  0  0  0  0
    0.0427    1.4655   -0.1760 H   0  0  0  0  0  0  0  0  0  0  0  0
    7.7274   -2.8845   -3.3219 H   0  0  0  0  0  0  0  0  0  0  0  0
   -0.8709   -3.4168    3.1490 H   0  0  0  0  0  0  0  0  0  0  0  0
   10.0745   -2.2370   -3.8938 H   0  0  0  0  0  0  0  0  0  0  0  0
   10.0196   -0.9638   -2.6583 H   0  0  0  0  0  0  0  0  0  0  0  0
    8.9528   -0.8811   -4.0721 H   0  0  0  0  0  0  0  0  0  0  0  0
    9.6306   -4.0508   -2.1639 H   0  0  0  0  0  0  0  0  0  0  0  0
    8.2095   -3.9737   -1.1232 H   0  0  0  0  0  0  0  0  0  0  0  0
    9.5600   -2.8591   -0.8508 H   0  0  0  0  0  0  0  0  0  0  0  0
   -3.6208   -1.6544    3.9869 H   0  0  0  0  0  0  0  0  0  0  0  0
   -2.5790   -2.9918    4.4747 H   0  0  0  0  0  0  0  0  0  0  0  0
   -4.9917   -3.3531    2.6204 H   0  0  0  0  0  0  0  0  0  0  0  0
   -3.9868   -4.6323    3.3113 H   0  0  0  0  0  0  0  0  0  0  0  0
   -6.0911   -4.4295    4.5870 H   0  0  0  0  0  0  0  0  0  0  0  0
   -5.7908   -2.7074    4.8748 H   0  0  0  0  0  0  0  0  0  0  0  0
   -4.7419   -3.9230    5.6215 H   0  0  0  0  0  0  0  0  0  0  0  0
  1  2  1  0  0  0  0 
  1  3  1  0  0  0  0 
  4  2  1  0  0  0  0 
  3  5  2  0  0  0  0 
  3  6  1  0  0  0  0 
  4  7  1  0  0  0  0 
  4  8  1  0  0  0  0 
  5  9  1  0  0  0  0 
  5 10  1  0  0  0  0 
  6 11  2  0  0  0  0 
  7 12  1  0  0  0  0 
  9 13  1  0  0  0  0 
  9 14  2  0  0  0  0 
 10 15  2  0  0  0  0 
 11 15  1  0  0  0  0 
 12 16  1  0  0  0  0 
 15 17  1  0  0  0  0 
 16 18  1  0  0  0  0 
 16 19  1  0  0  0  0 
 17 20  1  0  0  0  0 
 20 21  1  0  0  0  0 
 20 22  2  0  0  0  0 
 21 23  1  0  0  0  0 
 23 24  1  0  0  0  0 
 25  2  1  0  0  0  0 
 26  2  1  0  0  0  0 
 27  4  1  0  0  0  0 
 28  6  1  0  0  0  0 
 29  7  1  0  0  0  0 
 30  7  1  0  0  0  0 
 31  8  1  0  0  0  0 
 32 10  1  0  0  0  0 
 33 11  1  0  0  0  0 
 34 12  1  0  0  0  0 
 35 13  1  0  0  0  0 
 36 13  1  0  0  0  0 
 37 13  1  0  0  0  0 
 38 16  1  0  0  0  0 
 39 17  1  0  0  0  0 
 40 18  1  0  0  0  0 
 41 18  1  0  0  0  0 
 42 18  1  0  0  0  0 
 43 19  1  0  0  0  0 
 44 19  1  0  0  0  0 
 45 19  1  0  0  0  0 
 46 21  1  0  0  0  0 
 47 21  1  0  0  0  0 
 48 23  1  0  0  0  0 
 49 23  1  0  0  0  0 
 50 24  1  0  0  0  0 
 51 24  1  0  0  0  0 
 52 24  1  0  0  0  0 
M  END
> <cdk:Title>
acebutolol

> <Conformer>
3

> <SuperDrugID>
SD000018

$$$$
acebutolol
  CDK     0628171801

 52 52  0  0  0  0  0  0  0  0999 V2000
    3.3455   -1.4139   -0.2872 O   0  0  0  0  0  0  0  0  0  0  0  0
    4.1770   -0.9641    0.8105 C   0  0  2  0  0  0  0  0  0  0  0  0
    2.1185   -1.8449    0.1574 C   0  0  0  0  0  0  0  0  0  0  0  0
    5.4662   -0.2710    0.3045 C   0  0  2  0  0  0  0  0  0  0  0  0
    1.0243   -0.9457    0.2488 C   0  0  0  0  0  0  0  0  0  0  0  0
    1.9828   -3.1764    0.5958 C   0  0  0  0  0  0  0  0  0  0  0  0
    5.2048    1.0848   -0.4065 C   0  0  2  0  0  0  0  0  0  0  0  0
    6.1709   -1.1593   -0.5611 O   0  0  0  0  0  0  0  0  0  0  0  0
    1.1286    0.3724   -0.2780 C   0  0  0  0  0  0  0  0  0  0  0  0
   -0.1477   -1.3822    0.9118 C   0  0  0  0  0  0  0  0  0  0  0  0
    0.8085   -3.5928    1.2404 C   0  0  0  0  0  0  0  0  0  0  0  0
    6.4990    1.7495   -0.6884 N   0  0  1  0  0  0  0  0  0  0  0  0
    0.5292    1.5575    0.3705 C   0  0  0  0  0  0  0  0  0  0  0  0
    1.7761    0.5599   -1.3352 O   0  0  0  0  0  0  0  0  0  0  0  0
   -0.2545   -2.6910    1.4365 C   0  0  0  0  0  0  0  0  0  0  0  0
    6.4666    3.1659   -1.1382 C   0  0  1  0  0  0  0  0  0  0  0  0
   -1.2982   -3.0963    2.2133 N   0  0  0  0  0  0  0  0  0  0  0  0
    7.9260    3.6847   -1.1027 C   0  0  0  0  0  0  0  0  0  0  0  0
    5.8457    3.3387   -2.5495 C   0  0  0  0  0  0  0  0  0  0  0  0
   -2.6035   -2.7171    2.1295 C   0  0  0  0  0  0  0  0  0  0  0  0
   -3.5227   -3.0544    3.2369 C   0  0  2  0  0  0  0  0  0  0  0  0
   -3.0563   -2.0933    1.1401 O   0  0  0  0  0  0  0  0  0  0  0  0
   -3.2642   -2.1752    4.4916 C   0  0  1  0  0  0  0  0  0  0  0  0
   -4.3192   -2.3962    5.5998 C   0  0  0  0  0  0  0  0  0  0  0  0
    4.4664   -1.8260    1.4223 H   0  0  0  0  0  0  0  0  0  0  0  0
    3.6457   -0.2568    1.4585 H   0  0  0  0  0  0  0  0  0  0  0  0
    6.1036   -0.0834    1.1742 H   0  0  0  0  0  0  0  0  0  0  0  0
    2.7543   -3.8351    0.4787 H   0  0  0  0  0  0  0  0  0  0  0  0
    4.5942    1.7230    0.2392 H   0  0  0  0  0  0  0  0  0  0  0  0
    4.6656    0.9089   -1.3396 H   0  0  0  0  0  0  0  0  0  0  0  0
    6.2716   -1.9848   -0.0379 H   0  0  0  0  0  0  0  0  0  0  0  0
   -0.9229   -0.7312    1.0450 H   0  0  0  0  0  0  0  0  0  0  0  0
    0.7430   -4.5531    1.5859 H   0  0  0  0  0  0  0  0  0  0  0  0
    7.0066    1.7506    0.1993 H   0  0  0  0  0  0  0  0  0  0  0  0
    0.8285    2.4768   -0.1395 H   0  0  0  0  0  0  0  0  0  0  0  0
   -0.5584    1.4937    0.3403 H   0  0  0  0  0  0  0  0  0  0  0  0
    0.8579    1.6202    1.4104 H   0  0  0  0  0  0  0  0  0  0  0  0
    5.8874    3.7605   -0.4253 H   0  0  0  0  0  0  0  0  0  0  0  0
   -1.0780   -3.7125    2.9281 H   0  0  0  0  0  0  0  0  0  0  0  0
    7.9708    4.7368   -1.3877 H   0  0  0  0  0  0  0  0  0  0  0  0
    8.5541    3.1086   -1.7851 H   0  0  0  0  0  0  0  0  0  0  0  0
    8.3340    3.5915   -0.0943 H   0  0  0  0  0  0  0  0  0  0  0  0
    5.9295    4.3760   -2.8802 H   0  0  0  0  0  0  0  0  0  0  0  0
    4.7864    3.0811   -2.5316 H   0  0  0  0  0  0  0  0  0  0  0  0
    6.3527    2.6983   -3.2735 H   0  0  0  0  0  0  0  0  0  0  0  0
   -3.3978   -4.1082    3.4971 H   0  0  0  0  0  0  0  0  0  0  0  0
   -4.5571   -2.9120    2.9096 H   0  0  0  0  0  0  0  0  0  0  0  0
   -2.2770   -2.4051    4.9020 H   0  0  0  0  0  0  0  0  0  0  0  0
   -3.2707   -1.1173    4.2123 H   0  0  0  0  0  0  0  0  0  0  0  0
   -4.1028   -1.7523    6.4537 H   0  0  0  0  0  0  0  0  0  0  0  0
   -4.3042   -3.4348    5.9341 H   0  0  0  0  0  0  0  0  0  0  0  0
   -5.3193   -2.1550    5.2340 H   0  0  0  0  0  0  0  0  0  0  0  0
  1  2  1  0  0  0  0 
  1  3  1  0  0  0  0 
  4  2  1  0  0  0  0 
  3  5  2  0  0  0  0 
  3  6  1  0  0  0  0 
  4  7  1  0  0  0  0 
  4  8  1  0  0  0  0 
  5  9  1  0  0  0  0 
  5 10  1  0  0  0  0 
  6 11  2  0  0  0  0 
  7 12  1  0  0  0  0 
  9 13  1  0  0  0  0 
  9 14  2  0  0  0  0 
 10 15  2  0  0  0  0 
 11 15  1  0  0  0  0 
 12 16  1  0  0  0  0 
 15 17  1  0  0  0  0 
 16 18  1  0  0  0  0 
 16 19  1  0  0  0  0 
 17 20  1  0  0  0  0 
 20 21  1  0  0  0  0 
 20 22  2  0  0  0  0 
 21 23  1  0  0  0  0 
 23 24  1  0  0  0  0 
 25  2  1  0  0  0  0 
 26  2  1  0  0  0  0 
 27  4  1  0  0  0  0 
 28  6  1  0  0  0  0 
 29  7  1  0  0  0  0 
 30  7  1  0  0  0  0 
 31  8  1  0  0  0  0 
 32 10  1  0  0  0  0 
 33 11  1  0  0  0  0 
 34 12  1  0  0  0  0 
 35 13  1  0  0  0  0 
 36 13  1  0  0  0  0 
 37 13  1  0  0  0  0 
 38 16  1  0  0  0  0 
 39 17  1  0  0  0  0 
 40 18  1  0  0  0  0 
 41 18  1  0  0  0  0 
 42 18  1  0  0  0  0 
 43 19  1  0  0  0  0 
 44 19  1  0  0  0  0 
 45 19  1  0  0  0  0 
 46 21  1  0  0  0  0 
 47 21  1  0  0  0  0 
 48 23  1  0  0  0  0 
 49 23  1  0  0  0  0 
 50 24  1  0  0  0  0 
 51 24  1  0  0  0  0 
 52 24  1  0  0  0  0 
M  END
> <cdk:Title>
acebutolol

> <Conformer>
4

> <SuperDrugID>
SD000018

$$$$
acebutolol
  CDK     0628171801

 52 52  0  0  0  0  0  0  0  0999 V2000
    3.2858   -1.8107   -0.7362 O   0  0  0  0  0  0  0  0  0  0  0  0
    4.1005   -1.0562    0.1932 C   0  0  2  0  0  0  0  0  0  0  0  0
    2.0782   -2.1254   -0.1593 C   0  0  0  0  0  0  0  0  0  0  0  0
    5.3000   -0.3785   -0.5130 C   0  0  2  0  0  0  0  0  0  0  0  0
    0.9563   -1.2590   -0.2803 C   0  0  0  0  0  0  0  0  0  0  0  0
    2.0135   -3.2840    0.6387 C   0  0  0  0  0  0  0  0  0  0  0  0
    6.1969    0.3330    0.5323 C   0  0  2  0  0  0  0  0  0  0  0  0
    4.8230    0.5684   -1.4705 O   0  0  0  0  0  0  0  0  0  0  0  0
    0.9753   -0.1537   -1.1928 C   0  0  0  0  0  0  0  0  0  0  0  0
   -0.1585   -1.5168    0.5578 C   0  0  0  0  0  0  0  0  0  0  0  0
    0.8826   -3.5305    1.4304 C   0  0  0  0  0  0  0  0  0  0  0  0
    7.3200    1.0654   -0.0946 N   0  0  1  0  0  0  0  0  0  0  0  0
    0.1511    1.0678   -1.0489 C   0  0  0  0  0  0  0  0  0  0  0  0
    1.7274   -0.1926   -2.1966 O   0  0  0  0  0  0  0  0  0  0  0  0
   -0.2008   -2.6283    1.4368 C   0  0  0  0  0  0  0  0  0  0  0  0
    8.2579    1.7227    0.8588 C   0  0  1  0  0  0  0  0  0  0  0  0
   -1.1735   -2.8817    2.3668 N   0  0  0  0  0  0  0  0  0  0  0  0
    9.5422    2.1058    0.0852 C   0  0  0  0  0  0  0  0  0  0  0  0
    7.6375    2.9712    1.5435 C   0  0  0  0  0  0  0  0  0  0  0  0
   -2.4336   -2.3755    2.4913 C   0  0  0  0  0  0  0  0  0  0  0  0
   -3.2069   -2.6647    3.7192 C   0  0  2  0  0  0  0  0  0  0  0  0
   -2.9774   -1.6721    1.6080 O   0  0  0  0  0  0  0  0  0  0  0  0
   -4.4025   -3.6178    3.4591 C   0  0  1  0  0  0  0  0  0  0  0  0
   -5.3425   -3.7369    4.6804 C   0  0  0  0  0  0  0  0  0  0  0  0
    4.4797   -1.7348    0.9662 H   0  0  0  0  0  0  0  0  0  0  0  0
    3.5191   -0.2635    0.6848 H   0  0  0  0  0  0  0  0  0  0  0  0
    5.8872   -1.1370   -1.0385 H   0  0  0  0  0  0  0  0  0  0  0  0
    2.8062   -3.9315    0.6756 H   0  0  0  0  0  0  0  0  0  0  0  0
    6.5950   -0.4164    1.2217 H   0  0  0  0  0  0  0  0  0  0  0  0
    5.5800    1.0341    1.0972 H   0  0  0  0  0  0  0  0  0  0  0  0
    4.3512    0.0355   -2.1436 H   0  0  0  0  0  0  0  0  0  0  0  0
   -0.9429   -0.8724    0.5461 H   0  0  0  0  0  0  0  0  0  0  0  0
    0.8677   -4.3664    2.0231 H   0  0  0  0  0  0  0  0  0  0  0  0
    7.8618    0.3683   -0.6106 H   0  0  0  0  0  0  0  0  0  0  0  0
    0.3803    1.7921   -1.8346 H   0  0  0  0  0  0  0  0  0  0  0  0
   -0.9075    0.8224   -1.1232 H   0  0  0  0  0  0  0  0  0  0  0  0
    0.3439    1.5414   -0.0847 H   0  0  0  0  0  0  0  0  0  0  0  0
    8.5508    1.0092    1.6363 H   0  0  0  0  0  0  0  0  0  0  0  0
   -0.9183   -3.5133    3.0578 H   0  0  0  0  0  0  0  0  0  0  0  0
   10.2610    2.5839    0.7530 H   0  0  0  0  0  0  0  0  0  0  0  0
    9.3096    2.7935   -0.7303 H   0  0  0  0  0  0  0  0  0  0  0  0
   10.0102    1.2126   -0.3323 H   0  0  0  0  0  0  0  0  0  0  0  0
    8.3900    3.4955    2.1350 H   0  0  0  0  0  0  0  0  0  0  0  0
    6.8338    2.6787    2.2192 H   0  0  0  0  0  0  0  0  0  0  0  0
    7.2366    3.6572    0.7945 H   0  0  0  0  0  0  0  0  0  0  0  0
   -3.5645   -1.7155    4.1328 H   0  0  0  0  0  0  0  0  0  0  0  0
   -2.5560   -3.1187    4.4724 H   0  0  0  0  0  0  0  0  0  0  0  0
   -4.9852   -3.2570    2.6076 H   0  0  0  0  0  0  0  0  0  0  0  0
   -4.0182   -4.6092    3.2057 H   0  0  0  0  0  0  0  0  0  0  0  0
   -6.1217   -4.4726    4.4757 H   0  0  0  0  0  0  0  0  0  0  0  0
   -5.8134   -2.7729    4.8782 H   0  0  0  0  0  0  0  0  0  0  0  0
   -4.7934   -4.0524    5.5707 H   0  0  0  0  0  0  0  0  0  0  0  0
  1  2  1  0  0  0  0 
  1  3  1  0  0  0  0 
  4  2  1  0  0  0  0 
  3  5  2  0  0  0  0 
  3  6  1  0  0  0  0 
  4  7  1  0  0  0  0 
  4  8  1  0  0  0  0 
  5  9  1  0  0  0  0 
  5 10  1  0  0  0  0 
  6 11  2  0  0  0  0 
  7 12  1  0  0  0  0 
  9 13  1  0  0  0  0 
  9 14  2  0  0  0  0 
 10 15  2  0  0  0  0 
 11 15  1  0  0  0  0 
 12 16  1  0  0  0  0 
 15 17  1  0  0  0  0 
 16 18  1  0  0  0  0 
 16 19  1  0  0  0  0 
 17 20  1  0  0  0  0 
 20 21  1  0  0  0  0 
 20 22  2  0  0  0  0 
 21 23  1  0  0  0  0 
 23 24  1  0  0  0  0 
 25  2  1  0  0  0  0 
 26  2  1  0  0  0  0 
 27  4  1  0  0  0  0 
 28  6  1  0  0  0  0 
 29  7  1  0  0  0  0 
 30  7  1  0  0  0  0 
 31  8  1  0  0  0  0 
 32 10  1  0  0  0  0 
 33 11  1  0  0  0  0 
 34 12  1  0  0  0  0 
 35 13  1  0  0  0  0 
 36 13  1  0  0  0  0 
 37 13  1  0  0  0  0 
 38 16  1  0  0  0  0 
 39 17  1  0  0  0  0 
 40 18  1  0  0  0  0 
 41 18  1  0  0  0  0 
 42 18  1  0  0  0  0 
 43 19  1  0  0  0  0 
 44 19  1  0  0  0  0 
 45 19  1  0  0  0  0 
 46 21  1  0  0  0  0 
 47 21  1  0  0  0  0 
 48 23  1  0  0  0  0 
 49 23  1  0  0  0  0 
 50 24  1  0  0  0  0 
 51 24  1  0  0  0  0 
 52 24  1  0  0  0  0 
M  END
> <cdk:Title>
acebutolol

> <Conformer>
5

> <SuperDrugID>
SD000018

$$$$
acebutolol
  CDK     0628171801

 52 52  0  0  0  0  0  0  0  0999 V2000
    3.4019   -1.3009   -0.0996 O   0  0  0  0  0  0  0  0  0  0  0  0
    4.0474   -0.6855    1.0439 C   0  0  2  0  0  0  0  0  0  0  0  0
    2.1640   -1.7998    0.2444 C   0  0  0  0  0  0  0  0  0  0  0  0
    5.2285    0.2313    0.6338 C   0  0  2  0  0  0  0  0  0  0  0  0
    0.9981   -0.9966    0.1152 C   0  0  0  0  0  0  0  0  0  0  0  0
    2.0852   -3.0849    0.8199 C   0  0  0  0  0  0  0  0  0  0  0  0
    5.9371    0.8048    1.8896 C   0  0  2  0  0  0  0  0  0  0  0  0
    4.7490    1.3127   -0.1647 O   0  0  0  0  0  0  0  0  0  0  0  0
    1.0438    0.2500   -0.5863 C   0  0  0  0  0  0  0  0  0  0  0  0
   -0.1918   -1.4565    0.7377 C   0  0  0  0  0  0  0  0  0  0  0  0
    0.8880   -3.5264    1.4049 C   0  0  0  0  0  0  0  0  0  0  0  0
    7.0738    1.6935    1.5453 N   0  0  1  0  0  0  0  0  0  0  0  0
    0.1699    1.4040   -0.2838 C   0  0  0  0  0  0  0  0  0  0  0  0
    1.8630    0.4055   -1.5226 O   0  0  0  0  0  0  0  0  0  0  0  0
   -0.2518   -2.6964    1.4206 C   0  0  0  0  0  0  0  0  0  0  0  0
    7.8733    2.1908    2.7004 C   0  0  1  0  0  0  0  0  0  0  0  0
   -1.3096   -3.1201    2.1814 N   0  0  0  0  0  0  0  0  0  0  0  0
    9.2089    2.7770    2.1743 C   0  0  0  0  0  0  0  0  0  0  0  0
    7.0882    3.2404    3.5349 C   0  0  0  0  0  0  0  0  0  0  0  0
   -2.6254   -2.7739    2.1110 C   0  0  0  0  0  0  0  0  0  0  0  0
   -3.5247   -3.1855    3.2133 C   0  0  2  0  0  0  0  0  0  0  0  0
   -3.1043   -2.1259    1.1503 O   0  0  0  0  0  0  0  0  0  0  0  0
   -3.4338   -2.2124    4.4209 C   0  0  1  0  0  0  0  0  0  0  0  0
   -4.4172   -2.5717    5.5625 C   0  0  0  0  0  0  0  0  0  0  0  0
    4.4252   -1.4775    1.6976 H   0  0  0  0  0  0  0  0  0  0  0  0
    3.3466   -0.0702    1.6226 H   0  0  0  0  0  0  0  0  0  0  0  0
    5.9493   -0.3422    0.0467 H   0  0  0  0  0  0  0  0  0  0  0  0
    2.9131   -3.6859    0.8513 H   0  0  0  0  0  0  0  0  0  0  0  0
    6.3035   -0.0274    2.4972 H   0  0  0  0  0  0  0  0  0  0  0  0
    5.2012    1.3595    2.4762 H   0  0  0  0  0  0  0  0  0  0  0  0
    4.3847    0.8977   -0.9740 H   0  0  0  0  0  0  0  0  0  0  0  0
   -1.0191   -0.8634    0.7254 H   0  0  0  0  0  0  0  0  0  0  0  0
    0.8639   -4.4497    1.8473 H   0  0  0  0  0  0  0  0  0  0  0  0
    7.7033    1.1378    0.9665 H   0  0  0  0  0  0  0  0  0  0  0  0
    0.4313    2.2721   -0.8946 H   0  0  0  0  0  0  0  0  0  0  0  0
   -0.8721    1.1568   -0.4864 H   0  0  0  0  0  0  0  0  0  0  0  0
    0.2790    1.6852    0.7651 H   0  0  0  0  0  0  0  0  0  0  0  0
    8.1335    1.3547    3.3571 H   0  0  0  0  0  0  0  0  0  0  0  0
   -1.0839   -3.7430    2.8903 H   0  0  0  0  0  0  0  0  0  0  0  0
    9.8210    3.1353    3.0076 H   0  0  0  0  0  0  0  0  0  0  0  0
    9.0238    3.6095    1.4901 H   0  0  0  0  0  0  0  0  0  0  0  0
    9.7753    2.0065    1.6448 H   0  0  0  0  0  0  0  0  0  0  0  0
    7.7267    3.6802    4.3026 H   0  0  0  0  0  0  0  0  0  0  0  0
    6.2408    2.7768    4.0418 H   0  0  0  0  0  0  0  0  0  0  0  0
    6.7133    4.0386    2.8917 H   0  0  0  0  0  0  0  0  0  0  0  0
   -3.2659   -4.1966    3.5404 H   0  0  0  0  0  0  0  0  0  0  0  0
   -4.5528   -3.2118    2.8467 H   0  0  0  0  0  0  0  0  0  0  0  0
   -2.4155   -2.2200    4.8220 H   0  0  0  0  0  0  0  0  0  0  0  0
   -3.6501   -1.1932    4.0845 H   0  0  0  0  0  0  0  0  0  0  0  0
   -4.3094   -1.8640    6.3872 H   0  0  0  0  0  0  0  0  0  0  0  0
   -4.2175   -3.5754    5.9417 H   0  0  0  0  0  0  0  0  0  0  0  0
   -5.4473   -2.5295    5.2055 H   0  0  0  0  0  0  0  0  0  0  0  0
  1  2  1  0  0  0  0 
  1  3  1  0  0  0  0 
  4  2  1  0  0  0  0 
  3  5  2  0  0  0  0 
  3  6  1  0  0  0  0 
  4  7  1  0  0  0  0 
  4  8  1  0  0  0  0 
  5  9  1  0  0  0  0 
  5 10  1  0  0  0  0 
  6 11  2  0  0  0  0 
  7 12  1  0  0  0  0 
  9 13  1  0  0  0  0 
  9 14  2  0  0  0  0 
 10 15  2  0  0  0  0 
 11 15  1  0  0  0  0 
 12 16  1  0  0  0  0 
 15 17  1  0  0  0  0 
 16 18  1  0  0  0  0 
 16 19  1  0  0  0  0 
 17 20  1  0  0  0  0 
 20 21  1  0  0  0  0 
 20 22  2  0  0  0  0 
 21 23  1  0  0  0  0 
 23 24  1  0  0  0  0 
 25  2  1  0  0  0  0 
 26  2  1  0  0  0  0 
 27  4  1  0  0  0  0 
 28  6  1  0  0  0  0 
 29  7  1  0  0  0  0 
 30  7  1  0  0  0  0 
 31  8  1  0  0  0  0 
 32 10  1  0  0  0  0 
 33 11  1  0  0  0  0 
 34 12  1  0  0  0  0 
 35 13  1  0  0  0  0 
 36 13  1  0  0  0  0 
 37 13  1  0  0  0  0 
 38 16  1  0  0  0  0 
 39 17  1  0  0  0  0 
 40 18  1  0  0  0  0 
 41 18  1  0  0  0  0 
 42 18  1  0  0  0  0 
 43 19  1  0  0  0  0 
 44 19  1  0  0  0  0 
 45 19  1  0  0  0  0 
 46 21  1  0  0  0  0 
 47 21  1  0  0  0  0 
 48 23  1  0  0  0  0 
 49 23  1  0  0  0  0 
 50 24  1  0  0  0  0 
 51 24  1  0  0  0  0 
 52 24  1  0  0  0  0 
M  END
> <cdk:Title>
acebutolol

> <Conformer>
6

> <SuperDrugID>
SD000018

$$$$
acebutolol
  CDK     0628171801

 52 52  0  0  0  0  0  0  0  0999 V2000
    2.4076   -1.0482   -1.1166 O   0  0  0  0  0  0  0  0  0  0  0  0
    3.3559   -0.2409   -0.3698 C   0  0  2  0  0  0  0  0  0  0  0  0
    1.3977   -1.5927   -0.3549 C   0  0  0  0  0  0  0  0  0  0  0  0
    4.3749   -1.0922    0.4428 C   0  0  2  0  0  0  0  0  0  0  0  0
    0.2225   -0.8633   -0.0205 C   0  0  0  0  0  0  0  0  0  0  0  0
    1.5646   -2.9125    0.1049 C   0  0  0  0  0  0  0  0  0  0  0  0
    5.3020   -0.2695    1.3743 C   0  0  2  0  0  0  0  0  0  0  0  0
    5.1692   -1.8661   -0.4565 O   0  0  0  0  0  0  0  0  0  0  0  0
   -0.0637    0.3922   -0.6492 C   0  0  0  0  0  0  0  0  0  0  0  0
   -0.6473   -1.4255    0.9533 C   0  0  0  0  0  0  0  0  0  0  0  0
    0.6739   -3.4567    1.0414 C   0  0  0  0  0  0  0  0  0  0  0  0
    6.1355   -1.2004    2.1789 N   0  0  1  0  0  0  0  0  0  0  0  0
   -0.9606    1.4230   -0.0865 C   0  0  0  0  0  0  0  0  0  0  0  0
    0.4428    0.6520   -1.7676 O   0  0  0  0  0  0  0  0  0  0  0  0
   -0.4187   -2.7050    1.5188 C   0  0  0  0  0  0  0  0  0  0  0  0
    6.8528   -0.6238    3.3462 C   0  0  1  0  0  0  0  0  0  0  0  0
   -1.1437   -3.2747    2.5335 N   0  0  0  0  0  0  0  0  0  0  0  0
    7.3266   -1.7868    4.2550 C   0  0  0  0  0  0  0  0  0  0  0  0
    8.0506    0.2519    2.8998 C   0  0  0  0  0  0  0  0  0  0  0  0
   -2.3865   -2.9752    3.0106 C   0  0  0  0  0  0  0  0  0  0  0  0
   -2.8702   -3.6625    4.2299 C   0  0  2  0  0  0  0  0  0  0  0  0
   -3.1534   -2.1551    2.4537 O   0  0  0  0  0  0  0  0  0  0  0  0
   -3.9588   -4.7261    3.9251 C   0  0  1  0  0  0  0  0  0  0  0  0
   -4.5608   -5.3391    5.2114 C   0  0  0  0  0  0  0  0  0  0  0  0
    2.8428    0.4721    0.2849 H   0  0  0  0  0  0  0  0  0  0  0  0
    3.9087    0.3510   -1.1019 H   0  0  0  0  0  0  0  0  0  0  0  0
    3.8234   -1.7822    1.0826 H   0  0  0  0  0  0  0  0  0  0  0  0
    2.3564   -3.4703   -0.2229 H   0  0  0  0  0  0  0  0  0  0  0  0
    4.6870    0.3456    2.0373 H   0  0  0  0  0  0  0  0  0  0  0  0
    5.9439    0.3856    0.7801 H   0  0  0  0  0  0  0  0  0  0  0  0
    4.5253   -2.3621   -1.0044 H   0  0  0  0  0  0  0  0  0  0  0  0
   -1.4566   -0.8920    1.2637 H   0  0  0  0  0  0  0  0  0  0  0  0
    0.8449   -4.4058    1.3839 H   0  0  0  0  0  0  0  0  0  0  0  0
    5.4914   -1.8959    2.5598 H   0  0  0  0  0  0  0  0  0  0  0  0
   -0.9577    2.3253   -0.7012 H   0  0  0  0  0  0  0  0  0  0  0  0
   -1.9831    1.0472   -0.0439 H   0  0  0  0  0  0  0  0  0  0  0  0
   -0.6271    1.6920    0.9154 H   0  0  0  0  0  0  0  0  0  0  0  0
    6.1643   -0.0108    3.9373 H   0  0  0  0  0  0  0  0  0  0  0  0
   -0.7001   -4.0062    2.9910 H   0  0  0  0  0  0  0  0  0  0  0  0
    7.8293   -1.3965    5.1423 H   0  0  0  0  0  0  0  0  0  0  0  0
    8.0193   -2.4381    3.7176 H   0  0  0  0  0  0  0  0  0  0  0  0
    6.4733   -2.3835    4.5840 H   0  0  0  0  0  0  0  0  0  0  0  0
    8.5802    0.6396    3.7714 H   0  0  0  0  0  0  0  0  0  0  0  0
    7.7041    1.1016    2.3104 H   0  0  0  0  0  0  0  0  0  0  0  0
    8.7460   -0.3330    2.2942 H   0  0  0  0  0  0  0  0  0  0  0  0
   -3.2641   -2.9087    4.9160 H   0  0  0  0  0  0  0  0  0  0  0  0
   -2.0340   -4.1498    4.7396 H   0  0  0  0  0  0  0  0  0  0  0  0
   -4.7655   -4.2723    3.3456 H   0  0  0  0  0  0  0  0  0  0  0  0
   -3.5271   -5.5297    3.3206 H   0  0  0  0  0  0  0  0  0  0  0  0
   -5.2686   -6.1275    4.9530 H   0  0  0  0  0  0  0  0  0  0  0  0
   -5.0874   -4.5758    5.7848 H   0  0  0  0  0  0  0  0  0  0  0  0
   -3.7809   -5.7720    5.8404 H   0  0  0  0  0  0  0  0  0  0  0  0
  1  2  1  0  0  0  0 
  1  3  1  0  0  0  0 
  4  2  1  0  0  0  0 
  3  5  2  0  0  0  0 
  3  6  1  0  0  0  0 
  4  7  1  0  0  0  0 
  4  8  1  0  0  0  0 
  5  9  1  0  0  0  0 
  5 10  1  0  0  0  0 
  6 11  2  0  0  0  0 
  7 12  1  0  0  0  0 
  9 13  1  0  0  0  0 
  9 14  2  0  0  0  0 
 10 15  2  0  0  0  0 
 11 15  1  0  0  0  0 
 12 16  1  0  0  0  0 
 15 17  1  0  0  0  0 
 16 18  1  0  0  0  0 
 16 19  1  0  0  0  0 
 17 20  1  0  0  0  0 
 20 21  1  0  0  0  0 
 20 22  2  0  0  0  0 
 21 23  1  0  0  0  0 
 23 24  1  0  0  0  0 
 25  2  1  0  0  0  0 
 26  2  1  0  0  0  0 
 27  4  1  0  0  0  0 
 28  6  1  0  0  0  0 
 29  7  1  0  0  0  0 
 30  7  1  0  0  0  0 
 31  8  1  0  0  0  0 
 32 10  1  0  0  0  0 
 33 11  1  0  0  0  0 
 34 12  1  0  0  0  0 
 35 13  1  0  0  0  0 
 36 13  1  0  0  0  0 
 37 13  1  0  0  0  0 
 38 16  1  0  0  0  0 
 39 17  1  0  0  0  0 
 40 18  1  0  0  0  0 
 41 18  1  0  0  0  0 
 42 18  1  0  0  0  0 
 43 19  1  0  0  0  0 
 44 19  1  0  0  0  0 
 45 19  1  0  0  0  0 
 46 21  1  0  0  0  0 
 47 21  1  0  0  0  0 
 48 23  1  0  0  0  0 
 49 23  1  0  0  0  0 
 50 24  1  0  0  0  0 
 51 24  1  0  0  0  0 
 52 24  1  0  0  0  0 
M  END
> <cdk:Title>
acebutolol

> <Conformer>
7

> <SuperDrugID>
SD000018

$$$$
acebutolol
  CDK     0628171801

 52 52  0  0  0  0  0  0  0  0999 V2000
    2.0916   -1.3502   -1.5787 O   0  0  0  0  0  0  0  0  0  0  0  0
    3.2497   -0.6982   -1.0116 C   0  0  2  0  0  0  0  0  0  0  0  0
    1.2143   -1.7760   -0.6086 C   0  0  0  0  0  0  0  0  0  0  0  0
    4.0763    0.0233   -2.1073 C   0  0  2  0  0  0  0  0  0  0  0  0
    0.1175   -0.9787   -0.1648 C   0  0  0  0  0  0  0  0  0  0  0  0
    1.4615   -3.0398   -0.0344 C   0  0  0  0  0  0  0  0  0  0  0  0
    5.1904    0.8897   -1.4664 C   0  0  2  0  0  0  0  0  0  0  0  0
    3.2287    0.8619   -2.8928 O   0  0  0  0  0  0  0  0  0  0  0  0
   -0.2148    0.2764   -0.7863 C   0  0  0  0  0  0  0  0  0  0  0  0
   -0.6425   -1.4736    0.9276 C   0  0  0  0  0  0  0  0  0  0  0  0
    0.6557   -3.5199    1.0084 C   0  0  0  0  0  0  0  0  0  0  0  0
    5.9282    1.6750   -2.4813 N   0  0  1  0  0  0  0  0  0  0  0  0
   -1.2768    1.1974   -0.3129 C   0  0  0  0  0  0  0  0  0  0  0  0
    0.3876    0.6542   -1.8190 O   0  0  0  0  0  0  0  0  0  0  0  0
   -0.4129   -2.7472    1.4988 C   0  0  0  0  0  0  0  0  0  0  0  0
    7.0641    2.4904   -1.9708 C   0  0  1  0  0  0  0  0  0  0  0  0
   -1.1246   -3.2568    2.5478 N   0  0  0  0  0  0  0  0  0  0  0  0
    7.8987    2.9440   -3.1931 C   0  0  0  0  0  0  0  0  0  0  0  0
    6.5973    3.7190   -1.1418 C   0  0  0  0  0  0  0  0  0  0  0  0
   -2.4508   -3.1290    2.8445 C   0  0  0  0  0  0  0  0  0  0  0  0
   -3.5118   -2.5745    1.9639 C   0  0  2  0  0  0  0  0  0  0  0  0
   -2.7808   -3.5506    3.9765 O   0  0  0  0  0  0  0  0  0  0  0  0
   -4.7329   -3.5173    1.8073 C   0  0  1  0  0  0  0  0  0  0  0  0
   -5.7234   -3.0308    0.7259 C   0  0  0  0  0  0  0  0  0  0  0  0
    3.8872   -1.4412   -0.5210 H   0  0  0  0  0  0  0  0  0  0  0  0
    2.9452    0.0444   -0.2641 H   0  0  0  0  0  0  0  0  0  0  0  0
    4.5273   -0.7210   -2.7709 H   0  0  0  0  0  0  0  0  0  0  0  0
    2.2437   -3.6097   -0.3680 H   0  0  0  0  0  0  0  0  0  0  0  0
    5.8823    0.2380   -0.9254 H   0  0  0  0  0  0  0  0  0  0  0  0
    4.7254    1.5770   -0.7566 H   0  0  0  0  0  0  0  0  0  0  0  0
    2.5800    0.2564   -3.3106 H   0  0  0  0  0  0  0  0  0  0  0  0
   -1.3753   -0.8942    1.3344 H   0  0  0  0  0  0  0  0  0  0  0  0
    0.8621   -4.4378    1.4123 H   0  0  0  0  0  0  0  0  0  0  0  0
    6.3222    0.9976   -3.1382 H   0  0  0  0  0  0  0  0  0  0  0  0
   -1.3543    2.0873   -0.9419 H   0  0  0  0  0  0  0  0  0  0  0  0
   -2.2458    0.6973   -0.3315 H   0  0  0  0  0  0  0  0  0  0  0  0
   -1.0569    1.5258    0.7029 H   0  0  0  0  0  0  0  0  0  0  0  0
    7.7107    1.8688   -1.3422 H   0  0  0  0  0  0  0  0  0  0  0  0
   -0.6124   -3.8009    3.1681 H   0  0  0  0  0  0  0  0  0  0  0  0
    8.7890    3.4856   -2.8666 H   0  0  0  0  0  0  0  0  0  0  0  0
    7.3059    3.5954   -3.8399 H   0  0  0  0  0  0  0  0  0  0  0  0
    8.2206    2.0761   -3.7726 H   0  0  0  0  0  0  0  0  0  0  0  0
    7.4510    4.3417   -0.8672 H   0  0  0  0  0  0  0  0  0  0  0  0
    6.1102    3.4046   -0.2183 H   0  0  0  0  0  0  0  0  0  0  0  0
    5.8948    4.3237   -1.7184 H   0  0  0  0  0  0  0  0  0  0  0  0
   -3.1181   -2.4017    0.9651 H   0  0  0  0  0  0  0  0  0  0  0  0
   -3.8402   -1.6150    2.3717 H   0  0  0  0  0  0  0  0  0  0  0  0
   -4.3839   -4.5163    1.5328 H   0  0  0  0  0  0  0  0  0  0  0  0
   -5.2598   -3.5917    2.7625 H   0  0  0  0  0  0  0  0  0  0  0  0
   -6.5996   -3.6803    0.7109 H   0  0  0  0  0  0  0  0  0  0  0  0
   -5.2504   -3.0609   -0.2575 H   0  0  0  0  0  0  0  0  0  0  0  0
   -6.0458   -2.0093    0.9356 H   0  0  0  0  0  0  0  0  0  0  0  0
  1  2  1  0  0  0  0 
  1  3  1  0  0  0  0 
  4  2  1  0  0  0  0 
  3  5  2  0  0  0  0 
  3  6  1  0  0  0  0 
  4  7  1  0  0  0  0 
  4  8  1  0  0  0  0 
  5  9  1  0  0  0  0 
  5 10  1  0  0  0  0 
  6 11  2  0  0  0  0 
  7 12  1  0  0  0  0 
  9 13  1  0  0  0  0 
  9 14  2  0  0  0  0 
 10 15  2  0  0  0  0 
 11 15  1  0  0  0  0 
 12 16  1  0  0  0  0 
 15 17  1  0  0  0  0 
 16 18  1  0  0  0  0 
 16 19  1  0  0  0  0 
 17 20  1  0  0  0  0 
 20 21  1  0  0  0  0 
 20 22  2  0  0  0  0 
 21 23  1  0  0  0  0 
 23 24  1  0  0  0  0 
 25  2  1  0  0  0  0 
 26  2  1  0  0  0  0 
 27  4  1  0  0  0  0 
 28  6  1  0  0  0  0 
 29  7  1  0  0  0  0 
 30  7  1  0  0  0  0 
 31  8  1  0  0  0  0 
 32 10  1  0  0  0  0 
 33 11  1  0  0  0  0 
 34 12  1  0  0  0  0 
 35 13  1  0  0  0  0 
 36 13  1  0  0  0  0 
 37 13  1  0  0  0  0 
 38 16  1  0  0  0  0 
 39 17  1  0  0  0  0 
 40 18  1  0  0  0  0 
 41 18  1  0  0  0  0 
 42 18  1  0  0  0  0 
 43 19  1  0  0  0  0 
 44 19  1  0  0  0  0 
 45 19  1  0  0  0  0 
 46 21  1  0  0  0  0 
 47 21  1  0  0  0  0 
 48 23  1  0  0  0  0 
 49 23  1  0  0  0  0 
 50 24  1  0  0  0  0 
 51 24  1  0  0  0  0 
 52 24  1  0  0  0  0 
M  END
> <cdk:Title>
acebutolol

> <Conformer>
8

> <SuperDrugID>
SD000018

$$$$
acebutolol
  CDK     0628171801

 52 52  0  0  0  0  0  0  0  0999 V2000
    3.1657   -1.7279   -0.8331 O   0  0  0  0  0  0  0  0  0  0  0  0
    4.1859   -1.1117   -0.0131 C   0  0  1  0  0  0  0  0  0  0  0  0
    2.0176   -1.9984   -0.1292 C   0  0  0  0  0  0  0  0  0  0  0  0
    5.4547   -0.8134   -0.8536 C   0  0  2  0  0  0  0  0  0  0  0  0
    0.9627   -1.0501    0.0081 C   0  0  0  0  0  0  0  0  0  0  0  0
    1.9224   -3.2717    0.4688 C   0  0  0  0  0  0  0  0  0  0  0  0
    6.0977   -2.0851   -1.4611 C   0  0  2  0  0  0  0  0  0  0  0  0
    6.4153   -0.1498   -0.0315 O   0  0  0  0  0  0  0  0  0  0  0  0
    0.9796    0.2048   -0.6988 C   0  0  0  0  0  0  0  0  0  0  0  0
   -0.1244   -1.4064    0.8526 C   0  0  0  0  0  0  0  0  0  0  0  0
    0.8042   -3.6136    1.2451 C   0  0  0  0  0  0  0  0  0  0  0  0
    7.3581   -1.7412   -2.1655 N   0  0  1  0  0  0  0  0  0  0  0  0
   -0.0890    1.2284   -0.6090 C   0  0  0  0  0  0  0  0  0  0  0  0
    1.9177    0.4924   -1.4810 O   0  0  0  0  0  0  0  0  0  0  0  0
   -0.2402   -2.6897    1.4402 C   0  0  0  0  0  0  0  0  0  0  0  0
    8.0104   -2.8453   -2.9185 C   0  0  1  0  0  0  0  0  0  0  0  0
   -1.2980   -3.0823    2.2167 N   0  0  0  0  0  0  0  0  0  0  0  0
    9.1460   -2.2486   -3.7897 C   0  0  0  0  0  0  0  0  0  0  0  0
    8.5539   -3.9489   -1.9704 C   0  0  0  0  0  0  0  0  0  0  0  0
   -2.6332   -2.8370    2.0390 C   0  0  0  0  0  0  0  0  0  0  0  0
   -3.2516   -2.1833    0.8569 C   0  0  2  0  0  0  0  0  0  0  0  0
   -3.3781   -3.2061    2.9758 O   0  0  0  0  0  0  0  0  0  0  0  0
   -4.5223   -2.8748    0.2953 C   0  0  1  0  0  0  0  0  0  0  0  0
   -4.9387   -2.2481   -1.0575 C   0  0  0  0  0  0  0  0  0  0  0  0
    3.8208   -0.1633    0.3981 H   0  0  0  0  0  0  0  0  0  0  0  0
    4.4546   -1.7665    0.8232 H   0  0  0  0  0  0  0  0  0  0  0  0
    5.1842   -0.1356   -1.6692 H   0  0  0  0  0  0  0  0  0  0  0  0
    2.6741   -3.9539    0.3402 H   0  0  0  0  0  0  0  0  0  0  0  0
    5.3960   -2.5403   -2.1653 H   0  0  0  0  0  0  0  0  0  0  0  0
    6.3056   -2.7986   -0.6599 H   0  0  0  0  0  0  0  0  0  0  0  0
    5.9846    0.6896    0.2334 H   0  0  0  0  0  0  0  0  0  0  0  0
   -0.8586   -0.7254    1.0536 H   0  0  0  0  0  0  0  0  0  0  0  0
    0.7596   -4.5458    1.6664 H   0  0  0  0  0  0  0  0  0  0  0  0
    7.1232   -1.0170   -2.8483 H   0  0  0  0  0  0  0  0  0  0  0  0
    0.0780    2.0499   -1.3139 H   0  0  0  0  0  0  0  0  0  0  0  0
   -1.0565    0.7785   -0.8447 H   0  0  0  0  0  0  0  0  0  0  0  0
   -0.1124    1.6409    0.4024 H   0  0  0  0  0  0  0  0  0  0  0  0
    7.2813   -3.2932   -3.6015 H   0  0  0  0  0  0  0  0  0  0  0  0
   -1.0704   -3.6231    2.9902 H   0  0  0  0  0  0  0  0  0  0  0  0
    9.6177   -3.0319   -4.3883 H   0  0  0  0  0  0  0  0  0  0  0  0
    9.9084   -1.7787   -3.1641 H   0  0  0  0  0  0  0  0  0  0  0  0
    8.7445   -1.4973   -4.4739 H   0  0  0  0  0  0  0  0  0  0  0  0
    9.1619   -4.6701   -2.5207 H   0  0  0  0  0  0  0  0  0  0  0  0
    7.7281   -4.4941   -1.5097 H   0  0  0  0  0  0  0  0  0  0  0  0
    9.1628   -3.5034   -1.1804 H   0  0  0  0  0  0  0  0  0  0  0  0
   -2.5272   -2.1580    0.0443 H   0  0  0  0  0  0  0  0  0  0  0  0
   -3.5034   -1.1556    1.1312 H   0  0  0  0  0  0  0  0  0  0  0  0
   -4.3283   -3.9394    0.1403 H   0  0  0  0  0  0  0  0  0  0  0  0
   -5.3491   -2.7770    1.0058 H   0  0  0  0  0  0  0  0  0  0  0  0
   -5.8518   -2.7134   -1.4318 H   0  0  0  0  0  0  0  0  0  0  0  0
   -4.1473   -2.3973   -1.7962 H   0  0  0  0  0  0  0  0  0  0  0  0
   -5.1121   -1.1755   -0.9428 H   0  0  0  0  0  0  0  0  0  0  0  0
  1  2  1  0  0  0  0 
  1  3  1  0  0  0  0 
  4  2  1  0  0  0  0 
  3  5  2  0  0  0  0 
  3  6  1  0  0  0  0 
  4  7  1  0  0  0  0 
  4  8  1  0  0  0  0 
  5  9  1  0  0  0  0 
  5 10  1  0  0  0  0 
  6 11  2  0  0  0  0 
  7 12  1  0  0  0  0 
  9 13  1  0  0  0  0 
  9 14  2  0  0  0  0 
 10 15  2  0  0  0  0 
 11 15  1  0  0  0  0 
 12 16  1  0  0  0  0 
 15 17  1  0  0  0  0 
 16 18  1  0  0  0  0 
 16 19  1  0  0  0  0 
 17 20  1  0  0  0  0 
 20 21  1  0  0  0  0 
 20 22  2  0  0  0  0 
 21 23  1  0  0  0  0 
 23 24  1  0  0  0  0 
 25  2  1  0  0  0  0 
 26  2  1  0  0  0  0 
 27  4  1  0  0  0  0 
 28  6  1  0  0  0  0 
 29  7  1  0  0  0  0 
 30  7  1  0  0  0  0 
 31  8  1  0  0  0  0 
 32 10  1  0  0  0  0 
 33 11  1  0  0  0  0 
 34 12  1  0  0  0  0 
 35 13  1  0  0  0  0 
 36 13  1  0  0  0  0 
 37 13  1  0  0  0  0 
 38 16  1  0  0  0  0 
 39 17  1  0  0  0  0 
 40 18  1  0  0  0  0 
 41 18  1  0  0  0  0 
 42 18  1  0  0  0  0 
 43 19  1  0  0  0  0 
 44 19  1  0  0  0  0 
 45 19  1  0  0  0  0 
 46 21  1  0  0  0  0 
 47 21  1  0  0  0  0 
 48 23  1  0  0  0  0 
 49 23  1  0  0  0  0 
 50 24  1  0  0  0  0 
 51 24  1  0  0  0  0 
 52 24  1  0  0  0  0 
M  END
> <cdk:Title>
acebutolol

> <Conformer>
9

> <SuperDrugID>
SD000018

$$$$
acebutolol
  CDK     0628171801

 52 52  0  0  0  0  0  0  0  0999 V2000
    1.9184   -1.2957   -1.6887 O   0  0  0  0  0  0  0  0  0  0  0  0
    3.1544   -0.6755   -1.2661 C   0  0  2  0  0  0  0  0  0  0  0  0
    1.1243   -1.7116   -0.6466 C   0  0  0  0  0  0  0  0  0  0  0  0
    3.8942   -0.0212   -2.4663 C   0  0  2  0  0  0  0  0  0  0  0  0
    0.1174   -0.8821   -0.0704 C   0  0  0  0  0  0  0  0  0  0  0  0
    1.3208   -3.0249   -0.1723 C   0  0  0  0  0  0  0  0  0  0  0  0
    3.0051    1.0194   -3.1942 C   0  0  2  0  0  0  0  0  0  0  0  0
    4.3244   -1.0208   -3.3891 O   0  0  0  0  0  0  0  0  0  0  0  0
   -0.2219    0.4054   -0.6121 C   0  0  0  0  0  0  0  0  0  0  0  0
   -0.5793   -1.3936    1.0562 C   0  0  0  0  0  0  0  0  0  0  0  0
    0.5706   -3.5214    0.9049 C   0  0  0  0  0  0  0  0  0  0  0  0
    3.6838    1.6569   -4.3451 N   0  0  1  0  0  0  0  0  0  0  0  0
   -1.2255    1.3321   -0.0372 C   0  0  0  0  0  0  0  0  0  0  0  0
    0.3009    0.8043   -1.6771 O   0  0  0  0  0  0  0  0  0  0  0  0
   -0.4061   -2.7175    1.5212 C   0  0  0  0  0  0  0  0  0  0  0  0
    2.8930    2.6950   -5.0664 C   0  0  1  0  0  0  0  0  0  0  0  0
   -1.1253   -3.2604    2.5539 N   0  0  0  0  0  0  0  0  0  0  0  0
    3.8327    3.3723   -6.0937 C   0  0  0  0  0  0  0  0  0  0  0  0
    1.6222    2.1331   -5.7653 C   0  0  0  0  0  0  0  0  0  0  0  0
   -2.4446   -3.0853    2.8769 C   0  0  0  0  0  0  0  0  0  0  0  0
   -3.4738   -2.4031    2.0479 C   0  0  2  0  0  0  0  0  0  0  0  0
   -2.7944   -3.5559    3.9845 O   0  0  0  0  0  0  0  0  0  0  0  0
   -4.8099   -3.1773    1.8920 C   0  0  1  0  0  0  0  0  0  0  0  0
   -5.7448   -2.4974    0.8629 C   0  0  0  0  0  0  0  0  0  0  0  0
    3.8059   -1.4287   -0.8129 H   0  0  0  0  0  0  0  0  0  0  0  0
    2.9629    0.1075   -0.5242 H   0  0  0  0  0  0  0  0  0  0  0  0
    4.7880    0.4848   -2.0908 H   0  0  0  0  0  0  0  0  0  0  0  0
    2.0110   -3.6298   -0.6207 H   0  0  0  0  0  0  0  0  0  0  0  0
    2.7112    1.7934   -2.4794 H   0  0  0  0  0  0  0  0  0  0  0  0
    2.1135    0.5068   -3.5563 H   0  0  0  0  0  0  0  0  0  0  0  0
    4.9954   -1.5471   -2.9031 H   0  0  0  0  0  0  0  0  0  0  0  0
   -1.2394   -0.8005    1.5586 H   0  0  0  0  0  0  0  0  0  0  0  0
    0.7354   -4.4804    1.2302 H   0  0  0  0  0  0  0  0  0  0  0  0
    4.5027    2.1354   -3.9611 H   0  0  0  0  0  0  0  0  0  0  0  0
   -1.3586    2.2215   -0.6564 H   0  0  0  0  0  0  0  0  0  0  0  0
   -2.1928    0.8353    0.0349 H   0  0  0  0  0  0  0  0  0  0  0  0
   -0.9070    1.6574    0.9521 H   0  0  0  0  0  0  0  0  0  0  0  0
    2.5797    3.4642   -4.3530 H   0  0  0  0  0  0  0  0  0  0  0  0
   -0.6376   -3.8651    3.1354 H   0  0  0  0  0  0  0  0  0  0  0  0
    3.3127    4.1783   -6.6156 H   0  0  0  0  0  0  0  0  0  0  0  0
    4.1837    2.6463   -6.8296 H   0  0  0  0  0  0  0  0  0  0  0  0
    4.6981    3.8007   -5.5848 H   0  0  0  0  0  0  0  0  0  0  0  0
    1.1767    2.8832   -6.4212 H   0  0  0  0  0  0  0  0  0  0  0  0
    0.8667    1.8619   -5.0266 H   0  0  0  0  0  0  0  0  0  0  0  0
    1.8671    1.2504   -6.3589 H   0  0  0  0  0  0  0  0  0  0  0  0
   -3.0881   -2.2354    1.0428 H   0  0  0  0  0  0  0  0  0  0  0  0
   -3.6766   -1.4304    2.5040 H   0  0  0  0  0  0  0  0  0  0  0  0
   -4.6122   -4.2035    1.5665 H   0  0  0  0  0  0  0  0  0  0  0  0
   -5.3217   -3.2189    2.8573 H   0  0  0  0  0  0  0  0  0  0  0  0
   -6.6923   -3.0358    0.8010 H   0  0  0  0  0  0  0  0  0  0  0  0
   -5.2792   -2.4984   -0.1269 H   0  0  0  0  0  0  0  0  0  0  0  0
   -5.9484   -1.4636    1.1566 H   0  0  0  0  0  0  0  0  0  0  0  0
  1  2  1  0  0  0  0 
  1  3  1  0  0  0  0 
  4  2  1  0  0  0  0 
  3  5  2  0  0  0  0 
  3  6  1  0  0  0  0 
  4  7  1  0  0  0  0 
  4  8  1  0  0  0  0 
  5  9  1  0  0  0  0 
  5 10  1  0  0  0  0 
  6 11  2  0  0  0  0 
  7 12  1  0  0  0  0 
  9 13  1  0  0  0  0 
  9 14  2  0  0  0  0 
 10 15  2  0  0  0  0 
 11 15  1  0  0  0  0 
 12 16  1  0  0  0  0 
 15 17  1  0  0  0  0 
 16 18  1  0  0  0  0 
 16 19  1  0  0  0  0 
 17 20  1  0  0  0  0 
 20 21  1  0  0  0  0 
 20 22  2  0  0  0  0 
 21 23  1  0  0  0  0 
 23 24  1  0  0  0  0 
 25  2  1  0  0  0  0 
 26  2  1  0  0  0  0 
 27  4  1  0  0  0  0 
 28  6  1  0  0  0  0 
 29  7  1  0  0  0  0 
 30  7  1  0  0  0  0 
 31  8  1  0  0  0  0 
 32 10  1  0  0  0  0 
 33 11  1  0  0  0  0 
 34 12  1  0  0  0  0 
 35 13  1  0  0  0  0 
 36 13  1  0  0  0  0 
 37 13  1  0  0  0  0 
 38 16  1  0  0  0  0 
 39 17  1  0  0  0  0 
 40 18  1  0  0  0  0 
 41 18  1  0  0  0  0 
 42 18  1  0  0  0  0 
 43 19  1  0  0  0  0 
 44 19  1  0  0  0  0 
 45 19  1  0  0  0  0 
 46 21  1  0  0  0  0 
 47 21  1  0  0  0  0 
 48 23  1  0  0  0  0 
 49 23  1  0  0  0  0 
 50 24  1  0  0  0  0 
 51 24  1  0  0  0  0 
 52 24  1  0  0  0  0 
M  END
> <cdk:Title>
acebutolol

> <Conformer>
10

> <SuperDrugID>
SD000018

$$$$
