acarbose
  CDK     0628171801

 87 90  0  0  0  0  0  0  0  0999 V2000
    4.2887    5.8884   -1.7926 O   0  0  0  0  0  0  0  0  0  0  0  0
    5.1961    5.9344   -2.9133 C   0  0  2  0  0  0  0  0  0  0  0  0
    3.3539    6.9366   -1.4766 C   0  0  2  0  0  0  0  0  0  0  0  0
    4.5959    6.1375   -4.3499 C   0  0  1  0  0  0  0  0  0  0  0  0
    5.8701    4.5315   -2.8061 C   0  0  2  0  0  0  0  0  0  0  0  0
    3.0463    6.8704    0.0424 C   0  0  2  0  0  0  0  0  0  0  0  0
    2.1060    6.7693   -2.1886 O   0  0  0  0  0  0  0  0  0  0  0  0
    4.1999    7.6014   -4.6847 C   0  0  1  0  0  0  0  0  0  0  0  0
    5.5730    5.7987   -5.3644 O   0  0  0  0  0  0  0  0  0  0  0  0
    6.5608    4.4054   -1.5626 O   0  0  0  0  0  0  0  0  0  0  0  0
    6.8475    4.2328   -3.9684 C   0  0  2  0  0  0  0  0  0  0  0  0
    4.2318    7.1241    0.7960 O   0  0  0  0  0  0  0  0  0  0  0  0
    2.4609    5.4764    0.3933 C   0  0  1  0  0  0  0  0  0  0  0  0
    1.4786    5.4735   -2.0221 C   0  0  1  0  0  0  0  0  0  0  0  0
    3.7634    7.7042   -6.0379 O   0  0  0  0  0  0  0  0  0  0  0  0
    6.0913    4.4574   -5.3362 C   0  0  1  0  0  0  0  0  0  0  0  0
    7.2506    2.8657   -3.9039 O   0  0  0  0  0  0  0  0  0  0  0  0
    2.0884    5.4307    1.7702 O   0  0  0  0  0  0  0  0  0  0  0  0
    1.2355    5.1238   -0.5115 C   0  0  1  0  0  0  0  0  0  0  0  0
    0.1648    5.4796   -2.8425 C   0  0  0  0  0  0  0  0  0  0  0  0
    5.0242    3.4516   -5.5450 O   0  0  0  0  0  0  0  0  0  0  0  0
    0.6614    3.7566   -0.3123 N   0  0  1  0  0  0  0  0  0  0  0  0
    4.5051    2.9439   -6.8418 C   0  0  1  0  0  0  0  0  0  0  0  0
    1.5335    2.5599   -0.1101 C   0  0  1  0  0  0  0  0  0  0  0  0
    3.5302    1.7952   -6.4526 C   0  0  1  0  0  0  0  0  0  0  0  0
    3.7913    4.0322   -7.7195 C   0  0  1  0  0  0  0  0  0  0  0  0
    0.7195    1.4518    0.3818 C   0  0  0  0  0  0  0  0  0  0  0  0
    2.3667    2.1832   -1.3735 C   0  0  2  0  0  0  0  0  0  0  0  0
    2.7081    1.2864   -7.6629 C   0  0  2  0  0  0  0  0  0  0  0  0
    4.2567    0.7113   -5.8721 O   0  0  0  0  0  0  0  0  0  0  0  0
    4.7719    4.9597   -8.4855 C   0  0  1  0  0  0  0  0  0  0  0  0
    2.9841    3.4454   -8.7682 O   0  0  0  0  0  0  0  0  0  0  0  0
    0.9207    0.1465    0.0914 C   0  0  0  0  0  0  0  0  0  0  0  0
    1.5490    2.1938   -2.5456 O   0  0  0  0  0  0  0  0  0  0  0  0
    3.0346    0.7977   -1.2044 C   0  0  2  0  0  0  0  0  0  0  0  0
    2.0029    2.4851   -8.3433 C   0  0  1  0  0  0  0  0  0  0  0  0
    1.7510    0.3177   -7.2364 O   0  0  0  0  0  0  0  0  0  0  0  0
    4.0591    5.9848   -9.1696 O   0  0  0  0  0  0  0  0  0  0  0  0
    0.0728   -0.8851    0.6915 C   0  0  2  0  0  0  0  0  0  0  0  0
    1.9890   -0.2922   -0.8242 C   0  0  2  0  0  0  0  0  0  0  0  0
    4.0623    0.8780   -0.2127 O   0  0  0  0  0  0  0  0  0  0  0  0
    1.2948    2.0516   -9.5000 O   0  0  0  0  0  0  0  0  0  0  0  0
    0.8385   -1.6720    1.5986 O   0  0  0  0  0  0  0  0  0  0  0  0
    1.3974   -0.8261   -2.0112 O   0  0  0  0  0  0  0  0  0  0  0  0
    5.9514    6.7043   -2.7282 H   0  0  0  0  0  0  0  0  0  0  0  0
    5.3360    2.5134   -7.4086 H   0  0  0  0  0  0  0  0  0  0  0  0
    2.2211    2.7654    0.7129 H   0  0  0  0  0  0  0  0  0  0  0  0
    3.7775    7.9188   -1.6976 H   0  0  0  0  0  0  0  0  0  0  0  0
    3.7091    5.5074   -4.4703 H   0  0  0  0  0  0  0  0  0  0  0  0
    5.0884    3.7643   -2.8110 H   0  0  0  0  0  0  0  0  0  0  0  0
    2.3173    7.6472    0.2931 H   0  0  0  0  0  0  0  0  0  0  0  0
    3.3838    7.9492   -4.0577 H   0  0  0  0  0  0  0  0  0  0  0  0
    5.0558    8.2665   -4.5464 H   0  0  0  0  0  0  0  0  0  0  0  0
    7.2589    5.0925   -1.5931 H   0  0  0  0  0  0  0  0  0  0  0  0
    7.7780    4.8434   -3.7935 H   0  0  0  0  0  0  0  0  0  0  0  0
    3.9446    7.1274    1.7341 H   0  0  0  0  0  0  0  0  0  0  0  0
    3.2562    4.7416    0.2535 H   0  0  0  0  0  0  0  0  0  0  0  0
    2.1299    4.7342   -2.4844 H   0  0  0  0  0  0  0  0  0  0  0  0
    3.5422    8.6510   -6.1651 H   0  0  0  0  0  0  0  0  0  0  0  0
    6.8308    4.3530   -6.1327 H   0  0  0  0  0  0  0  0  0  0  0  0
    7.8741    2.7512   -4.6519 H   0  0  0  0  0  0  0  0  0  0  0  0
    1.3999    6.1207    1.8692 H   0  0  0  0  0  0  0  0  0  0  0  0
    0.4387    5.7971   -0.1823 H   0  0  0  0  0  0  0  0  0  0  0  0
   -0.5432    6.2006   -2.4286 H   0  0  0  0  0  0  0  0  0  0  0  0
    0.3710    5.7517   -3.8798 H   0  0  0  0  0  0  0  0  0  0  0  0
   -0.2964    4.4899   -2.8329 H   0  0  0  0  0  0  0  0  0  0  0  0
    0.0744    3.8229    0.5230 H   0  0  0  0  0  0  0  0  0  0  0  0
    2.8357    2.1609   -5.6887 H   0  0  0  0  0  0  0  0  0  0  0  0
    3.1529    4.6479   -7.0768 H   0  0  0  0  0  0  0  0  0  0  0  0
   -0.0139    1.6900    1.0124 H   0  0  0  0  0  0  0  0  0  0  0  0
    3.1619    2.9148   -1.5170 H   0  0  0  0  0  0  0  0  0  0  0  0
    3.3819    0.8091   -8.3820 H   0  0  0  0  0  0  0  0  0  0  0  0
    4.8507    0.3899   -6.5832 H   0  0  0  0  0  0  0  0  0  0  0  0
    5.4737    5.4465   -7.8192 H   0  0  0  0  0  0  0  0  0  0  0  0
    5.3426    4.3819   -9.2167 H   0  0  0  0  0  0  0  0  0  0  0  0
    0.7905    1.6096   -2.3391 H   0  0  0  0  0  0  0  0  0  0  0  0
    3.5324    0.5246   -2.1400 H   0  0  0  0  0  0  0  0  0  0  0  0
    1.2818    2.9495   -7.6626 H   0  0  0  0  0  0  0  0  0  0  0  0
    1.3251    0.0027   -8.0618 H   0  0  0  0  0  0  0  0  0  0  0  0
    4.7483    6.4998   -9.6387 H   0  0  0  0  0  0  0  0  0  0  0  0
   -0.3366   -1.5349   -0.0840 H   0  0  0  0  0  0  0  0  0  0  0  0
   -0.7742   -0.4728    1.2463 H   0  0  0  0  0  0  0  0  0  0  0  0
    2.5374   -1.1175   -0.3622 H   0  0  0  0  0  0  0  0  0  0  0  0
    3.6080    1.1297    0.6182 H   0  0  0  0  0  0  0  0  0  0  0  0
    0.8640    2.8620   -9.8464 H   0  0  0  0  0  0  0  0  0  0  0  0
    0.2155   -2.3467    1.9406 H   0  0  0  0  0  0  0  0  0  0  0  0
    0.8860   -0.0918   -2.4084 H   0  0  0  0  0  0  0  0  0  0  0  0
  2  1  1  0  0  0  0 
  2  4  1  0  0  0  0 
  5  2  1  0  0  0  0 
  2 45  1  0  0  0  0 
  3  1  1  0  0  0  0 
  6  3  1  0  0  0  0 
  3  7  1  0  0  0  0 
  4  8  1  0  0  0  0 
  4  9  1  0  0  0  0 
  5 10  1  0  0  0  0 
 11  5  1  0  0  0  0 
  6 12  1  0  0  0  0 
 13  6  1  0  0  0  0 
 14  7  1  0  0  0  0 
  8 15  1  0  0  0  0 
 16  9  1  0  0  0  0 
 16 11  1  0  0  0  0 
 11 17  1  0  0  0  0 
 13 18  1  0  0  0  0 
 19 13  1  0  0  0  0 
 19 14  1  0  0  0  0 
 14 20  1  0  0  0  0 
 16 21  1  0  0  0  0 
 19 22  1  0  0  0  0 
 23 21  1  0  0  0  0 
 24 22  1  0  0  0  0 
 25 23  1  0  0  0  0 
 23 26  1  0  0  0  0 
 23 46  1  0  0  0  0 
 24 27  1  0  0  0  0 
 28 24  1  0  0  0  0 
 24 47  1  0  0  0  0 
 29 25  1  0  0  0  0 
 25 30  1  0  0  0  0 
 26 31  1  0  0  0  0 
 26 32  1  0  0  0  0 
 27 33  2  0  0  0  0 
 28 34  1  0  0  0  0 
 28 35  1  0  0  0  0 
 29 36  1  0  0  0  0 
 29 37  1  0  0  0  0 
 31 38  1  0  0  0  0 
 33 39  1  0  0  0  0 
 40 33  1  0  0  0  0 
 35 40  1  0  0  0  0 
 35 41  1  0  0  0  0 
 36 42  1  0  0  0  0 
 39 43  1  0  0  0  0 
 40 44  1  0  0  0  0 
 32 36  1  0  0  0  0 
  3 48  1  0  0  0  0 
  4 49  1  0  0  0  0 
  5 50  1  0  0  0  0 
  6 51  1  0  0  0  0 
  8 52  1  0  0  0  0 
  8 53  1  0  0  0  0 
 10 54  1  0  0  0  0 
 11 55  1  0  0  0  0 
 12 56  1  0  0  0  0 
 13 57  1  0  0  0  0 
 14 58  1  0  0  0  0 
 15 59  1  0  0  0  0 
 16 60  1  0  0  0  0 
 17 61  1  0  0  0  0 
 18 62  1  0  0  0  0 
 19 63  1  0  0  0  0 
 20 64  1  0  0  0  0 
 20 65  1  0  0  0  0 
 20 66  1  0  0  0  0 
 22 67  1  0  0  0  0 
 25 68  1  0  0  0  0 
 26 69  1  0  0  0  0 
 27 70  1  0  0  0  0 
 28 71  1  0  0  0  0 
 29 72  1  0  0  0  0 
 30 73  1  0  0  0  0 
 31 74  1  0  0  0  0 
 31 75  1  0  0  0  0 
 34 76  1  0  0  0  0 
 35 77  1  0  0  0  0 
 36 78  1  0  0  0  0 
 37 79  1  0  0  0  0 
 38 80  1  0  0  0  0 
 39 81  1  0  0  0  0 
 39 82  1  0  0  0  0 
 40 83  1  0  0  0  0 
 41 84  1  0  0  0  0 
 42 85  1  0  0  0  0 
 43 86  1  0  0  0  0 
 44 87  1  0  0  0  0 
M  END
> <cdk:Title>
acarbose

> <Conformer>
1

> <SuperDrugID>
SD000017

$$$$
acarbose
  CDK     0628171801

 87 90  0  0  0  0  0  0  0  0999 V2000
    4.2438    5.9085   -1.8317 O   0  0  0  0  0  0  0  0  0  0  0  0
    5.1039    5.9340   -2.9922 C   0  0  2  0  0  0  0  0  0  0  0  0
    3.2799    6.9360   -1.5229 C   0  0  2  0  0  0  0  0  0  0  0  0
    4.4292    6.0779   -4.4021 C   0  0  1  0  0  0  0  0  0  0  0  0
    5.8165    4.5482   -2.8888 C   0  0  2  0  0  0  0  0  0  0  0  0
    3.0019    6.9085    0.0011 C   0  0  2  0  0  0  0  0  0  0  0  0
    2.0200    6.7170   -2.1957 O   0  0  0  0  0  0  0  0  0  0  0  0
    3.9662    7.5144   -4.7683 C   0  0  1  0  0  0  0  0  0  0  0  0
    5.3654    5.7445   -5.4541 O   0  0  0  0  0  0  0  0  0  0  0  0
    6.5667    4.4575   -1.6764 O   0  0  0  0  0  0  0  0  0  0  0  0
    6.7356    4.2241   -4.0937 C   0  0  2  0  0  0  0  0  0  0  0  0
    4.1954    7.2212    0.7162 O   0  0  0  0  0  0  0  0  0  0  0  0
    2.4689    5.5062    0.4048 C   0  0  1  0  0  0  0  0  0  0  0  0
    1.4261    5.4133   -1.9810 C   0  0  1  0  0  0  0  0  0  0  0  0
    3.3498    7.5209   -6.0535 O   0  0  0  0  0  0  0  0  0  0  0  0
    5.9153    4.4169   -5.4330 C   0  0  1  0  0  0  0  0  0  0  0  0
    7.1347    2.8554   -4.0106 O   0  0  0  0  0  0  0  0  0  0  0  0
    2.1491    5.4749    1.7953 O   0  0  0  0  0  0  0  0  0  0  0  0
    1.2391    5.0767   -0.4584 C   0  0  1  0  0  0  0  0  0  0  0  0
    0.0942    5.3899   -2.7731 C   0  0  0  0  0  0  0  0  0  0  0  0
    4.8608    3.3896   -5.6173 O   0  0  0  0  0  0  0  0  0  0  0  0
    0.7504    3.6807   -0.2157 N   0  0  1  0  0  0  0  0  0  0  0  0
    4.3068    2.8892   -6.9067 C   0  0  1  0  0  0  0  0  0  0  0  0
    1.6847    2.5201   -0.0523 C   0  0  1  0  0  0  0  0  0  0  0  0
    3.3751    1.7009   -6.5180 C   0  0  1  0  0  0  0  0  0  0  0  0
    3.5328    3.9694   -7.7430 C   0  0  1  0  0  0  0  0  0  0  0  0
    0.9400    1.3850    0.4898 C   0  0  0  0  0  0  0  0  0  0  0  0
    2.4798    2.1571   -1.3445 C   0  0  2  0  0  0  0  0  0  0  0  0
    2.5351    1.1851   -7.7154 C   0  0  2  0  0  0  0  0  0  0  0  0
    4.1518    0.6322   -5.9774 O   0  0  0  0  0  0  0  0  0  0  0  0
    4.4600    4.9359   -8.5302 C   0  0  1  0  0  0  0  0  0  0  0  0
    2.7039    3.3788   -8.7742 O   0  0  0  0  0  0  0  0  0  0  0  0
    1.1672    0.0855    0.1897 C   0  0  0  0  0  0  0  0  0  0  0  0
    1.6262    2.1528   -2.4895 O   0  0  0  0  0  0  0  0  0  0  0  0
    3.1898    0.7852   -1.2142 C   0  0  2  0  0  0  0  0  0  0  0  0
    1.7721    2.3710   -8.3494 C   0  0  1  0  0  0  0  0  0  0  0  0
    1.6180    0.1792   -7.2869 O   0  0  0  0  0  0  0  0  0  0  0  0
    3.6970    5.9493   -9.1782 O   0  0  0  0  0  0  0  0  0  0  0  0
    0.3682   -0.9478    0.8481 C   0  0  2  0  0  0  0  0  0  0  0  0
    2.1963   -0.3297   -0.7734 C   0  0  2  0  0  0  0  0  0  0  0  0
    4.2709    0.8787   -0.2841 O   0  0  0  0  0  0  0  0  0  0  0  0
    1.0593    1.9300   -9.5016 O   0  0  0  0  0  0  0  0  0  0  0  0
   -1.0111   -0.8023    0.5247 O   0  0  0  0  0  0  0  0  0  0  0  0
    1.5487   -0.8836   -1.9200 O   0  0  0  0  0  0  0  0  0  0  0  0
    5.8503    6.7229   -2.8650 H   0  0  0  0  0  0  0  0  0  0  0  0
    5.1330    2.4961   -7.5079 H   0  0  0  0  0  0  0  0  0  0  0  0
    2.3996    2.7587    0.7375 H   0  0  0  0  0  0  0  0  0  0  0  0
    3.6666    7.9258   -1.7768 H   0  0  0  0  0  0  0  0  0  0  0  0
    3.5614    5.4129   -4.4546 H   0  0  0  0  0  0  0  0  0  0  0  0
    5.0511    3.7698   -2.8382 H   0  0  0  0  0  0  0  0  0  0  0  0
    2.2587    7.6735    0.2459 H   0  0  0  0  0  0  0  0  0  0  0  0
    3.2323    7.8978   -4.0673 H   0  0  0  0  0  0  0  0  0  0  0  0
    4.8184    8.1989   -4.7863 H   0  0  0  0  0  0  0  0  0  0  0  0
    7.2325    5.1740   -1.7312 H   0  0  0  0  0  0  0  0  0  0  0  0
    7.6761    4.8350   -3.9786 H   0  0  0  0  0  0  0  0  0  0  0  0
    3.9208    7.2835    1.6555 H   0  0  0  0  0  0  0  0  0  0  0  0
    3.2832    4.7982    0.2546 H   0  0  0  0  0  0  0  0  0  0  0  0
    2.0797    4.6812   -2.4488 H   0  0  0  0  0  0  0  0  0  0  0  0
    3.0296    8.4398   -6.1766 H   0  0  0  0  0  0  0  0  0  0  0  0
    6.6278    4.3309   -6.2553 H   0  0  0  0  0  0  0  0  0  0  0  0
    7.6809    2.6939   -4.8083 H   0  0  0  0  0  0  0  0  0  0  0  0
    1.4252    6.1252    1.9085 H   0  0  0  0  0  0  0  0  0  0  0  0
    0.4193    5.7152   -0.1168 H   0  0  0  0  0  0  0  0  0  0  0  0
   -0.6184    6.1035   -2.3518 H   0  0  0  0  0  0  0  0  0  0  0  0
    0.2763    5.6614   -3.8170 H   0  0  0  0  0  0  0  0  0  0  0  0
   -0.3491    4.3919   -2.7488 H   0  0  0  0  0  0  0  0  0  0  0  0
    0.2161    3.7313    0.6554 H   0  0  0  0  0  0  0  0  0  0  0  0
    2.6888    2.0312   -5.7311 H   0  0  0  0  0  0  0  0  0  0  0  0
    2.9035    4.5581   -7.0671 H   0  0  0  0  0  0  0  0  0  0  0  0
    0.2338    1.5962    1.1608 H   0  0  0  0  0  0  0  0  0  0  0  0
    3.2483    2.9099   -1.5120 H   0  0  0  0  0  0  0  0  0  0  0  0
    3.1985    0.7438   -8.4652 H   0  0  0  0  0  0  0  0  0  0  0  0
    4.7663    0.3705   -6.6957 H   0  0  0  0  0  0  0  0  0  0  0  0
    5.1709    5.4366   -7.8824 H   0  0  0  0  0  0  0  0  0  0  0  0
    5.0219    4.3865   -9.2896 H   0  0  0  0  0  0  0  0  0  0  0  0
    0.8856    1.5563   -2.2585 H   0  0  0  0  0  0  0  0  0  0  0  0
    3.6380    0.5179   -2.1759 H   0  0  0  0  0  0  0  0  0  0  0  0
    1.0500    2.7929   -7.6432 H   0  0  0  0  0  0  0  0  0  0  0  0
    1.1542   -0.1107   -8.1019 H   0  0  0  0  0  0  0  0  0  0  0  0
    4.3625    6.5675   -9.5514 H   0  0  0  0  0  0  0  0  0  0  0  0
    0.4928   -0.8733    1.9303 H   0  0  0  0  0  0  0  0  0  0  0  0
    0.6736   -1.9541    0.5515 H   0  0  0  0  0  0  0  0  0  0  0  0
    2.7887   -1.1377   -0.3327 H   0  0  0  0  0  0  0  0  0  0  0  0
    3.8521    1.0533    0.5842 H   0  0  0  0  0  0  0  0  0  0  0  0
    0.6389    2.7388   -9.8645 H   0  0  0  0  0  0  0  0  0  0  0  0
   -1.4641   -1.5061    1.0347 H   0  0  0  0  0  0  0  0  0  0  0  0
    0.9963   -0.1616   -2.2836 H   0  0  0  0  0  0  0  0  0  0  0  0
  2  1  1  0  0  0  0 
  2  4  1  0  0  0  0 
  5  2  1  0  0  0  0 
  2 45  1  0  0  0  0 
  3  1  1  0  0  0  0 
  6  3  1  0  0  0  0 
  3  7  1  0  0  0  0 
  4  8  1  0  0  0  0 
  4  9  1  0  0  0  0 
  5 10  1  0  0  0  0 
 11  5  1  0  0  0  0 
  6 12  1  0  0  0  0 
 13  6  1  0  0  0  0 
 14  7  1  0  0  0  0 
  8 15  1  0  0  0  0 
 16  9  1  0  0  0  0 
 16 11  1  0  0  0  0 
 11 17  1  0  0  0  0 
 13 18  1  0  0  0  0 
 19 13  1  0  0  0  0 
 19 14  1  0  0  0  0 
 14 20  1  0  0  0  0 
 16 21  1  0  0  0  0 
 19 22  1  0  0  0  0 
 23 21  1  0  0  0  0 
 24 22  1  0  0  0  0 
 25 23  1  0  0  0  0 
 23 26  1  0  0  0  0 
 23 46  1  0  0  0  0 
 24 27  1  0  0  0  0 
 28 24  1  0  0  0  0 
 24 47  1  0  0  0  0 
 29 25  1  0  0  0  0 
 25 30  1  0  0  0  0 
 26 31  1  0  0  0  0 
 26 32  1  0  0  0  0 
 27 33  2  0  0  0  0 
 28 34  1  0  0  0  0 
 28 35  1  0  0  0  0 
 29 36  1  0  0  0  0 
 29 37  1  0  0  0  0 
 31 38  1  0  0  0  0 
 33 39  1  0  0  0  0 
 40 33  1  0  0  0  0 
 35 40  1  0  0  0  0 
 35 41  1  0  0  0  0 
 36 42  1  0  0  0  0 
 39 43  1  0  0  0  0 
 40 44  1  0  0  0  0 
 32 36  1  0  0  0  0 
  3 48  1  0  0  0  0 
  4 49  1  0  0  0  0 
  5 50  1  0  0  0  0 
  6 51  1  0  0  0  0 
  8 52  1  0  0  0  0 
  8 53  1  0  0  0  0 
 10 54  1  0  0  0  0 
 11 55  1  0  0  0  0 
 12 56  1  0  0  0  0 
 13 57  1  0  0  0  0 
 14 58  1  0  0  0  0 
 15 59  1  0  0  0  0 
 16 60  1  0  0  0  0 
 17 61  1  0  0  0  0 
 18 62  1  0  0  0  0 
 19 63  1  0  0  0  0 
 20 64  1  0  0  0  0 
 20 65  1  0  0  0  0 
 20 66  1  0  0  0  0 
 22 67  1  0  0  0  0 
 25 68  1  0  0  0  0 
 26 69  1  0  0  0  0 
 27 70  1  0  0  0  0 
 28 71  1  0  0  0  0 
 29 72  1  0  0  0  0 
 30 73  1  0  0  0  0 
 31 74  1  0  0  0  0 
 31 75  1  0  0  0  0 
 34 76  1  0  0  0  0 
 35 77  1  0  0  0  0 
 36 78  1  0  0  0  0 
 37 79  1  0  0  0  0 
 38 80  1  0  0  0  0 
 39 81  1  0  0  0  0 
 39 82  1  0  0  0  0 
 40 83  1  0  0  0  0 
 41 84  1  0  0  0  0 
 42 85  1  0  0  0  0 
 43 86  1  0  0  0  0 
 44 87  1  0  0  0  0 
M  END
> <cdk:Title>
acarbose

> <Conformer>
2

> <SuperDrugID>
SD000017

$$$$
acarbose
  CDK     0628171801

 87 90  0  0  0  0  0  0  0  0999 V2000
    4.3904    5.9734   -1.4817 O   0  0  0  0  0  0  0  0  0  0  0  0
    5.3917    6.0069   -2.5230 C   0  0  2  0  0  0  0  0  0  0  0  0
    3.3905    6.9965   -1.3024 C   0  0  2  0  0  0  0  0  0  0  0  0
    4.9089    6.1493   -4.0101 C   0  0  1  0  0  0  0  0  0  0  0  0
    6.0919    4.6254   -2.3252 C   0  0  2  0  0  0  0  0  0  0  0  0
    2.9065    6.9687    0.1698 C   0  0  2  0  0  0  0  0  0  0  0  0
    2.2311    6.7763   -2.1374 O   0  0  0  0  0  0  0  0  0  0  0  0
    4.4981    7.5878   -4.4305 C   0  0  1  0  0  0  0  0  0  0  0  0
    5.9780    5.8201   -4.9282 O   0  0  0  0  0  0  0  0  0  0  0  0
    6.6766    4.5456   -1.0234 O   0  0  0  0  0  0  0  0  0  0  0  0
    7.1643    4.3015   -3.3933 C   0  0  2  0  0  0  0  0  0  0  0  0
    3.9848    7.3053    1.0404 O   0  0  0  0  0  0  0  0  0  0  0  0
    2.3357    5.5609    0.5018 C   0  0  1  0  0  0  0  0  0  0  0  0
    1.6157    5.4702   -2.0097 C   0  0  1  0  0  0  0  0  0  0  0  0
    4.0441    7.6050   -5.7801 O   0  0  0  0  0  0  0  0  0  0  0  0
    6.5290    4.4951   -4.8278 C   0  0  1  0  0  0  0  0  0  0  0  0
    7.5463    2.9331   -3.2501 O   0  0  0  0  0  0  0  0  0  0  0  0
    1.8338    5.5237    1.8391 O   0  0  0  0  0  0  0  0  0  0  0  0
    1.2370    5.1267   -0.5230 C   0  0  1  0  0  0  0  0  0  0  0  0
    0.3905    5.4500   -2.9584 C   0  0  0  0  0  0  0  0  0  0  0  0
    5.5115    3.4664   -5.1491 O   0  0  0  0  0  0  0  0  0  0  0  0
    0.7232    3.7300   -0.3495 N   0  0  1  0  0  0  0  0  0  0  0  0
    5.1425    2.9665   -6.5033 C   0  0  1  0  0  0  0  0  0  0  0  0
    1.6283    2.5722   -0.0569 C   0  0  1  0  0  0  0  0  0  0  0  0
    4.1785    1.7716   -6.2394 C   0  0  1  0  0  0  0  0  0  0  0  0
    4.4813    4.0471   -7.4300 C   0  0  1  0  0  0  0  0  0  0  0  0
    0.8220    1.4283    0.3672 C   0  0  0  0  0  0  0  0  0  0  0  0
    2.5986    2.2193   -1.2248 C   0  0  2  0  0  0  0  0  0  0  0  0
    3.5070    1.2552   -7.5384 C   0  0  2  0  0  0  0  0  0  0  0  0
    4.8852    0.7039   -5.6057 O   0  0  0  0  0  0  0  0  0  0  0  0
    5.5022    5.0198   -8.0842 C   0  0  1  0  0  0  0  0  0  0  0  0
    3.7980    3.4576   -8.5632 O   0  0  0  0  0  0  0  0  0  0  0  0
    1.1199    0.1317    0.1207 C   0  0  0  0  0  0  0  0  0  0  0  0
    1.9139    2.1992   -2.4776 O   0  0  0  0  0  0  0  0  0  0  0  0
    3.3061    0.8592   -0.9941 C   0  0  2  0  0  0  0  0  0  0  0  0
    2.8284    2.4366   -8.2709 C   0  0  1  0  0  0  0  0  0  0  0  0
    2.5474    0.2424   -7.2308 O   0  0  0  0  0  0  0  0  0  0  0  0
    4.8380    6.0308   -8.8349 O   0  0  0  0  0  0  0  0  0  0  0  0
    0.2425   -0.9191    0.6404 C   0  0  1  0  0  0  0  0  0  0  0  0
    2.2801   -0.2706   -0.6879 C   0  0  2  0  0  0  0  0  0  0  0  0
    4.2471    0.9698    0.0754 O   0  0  0  0  0  0  0  0  0  0  0  0
    2.2879    1.9854   -9.5111 O   0  0  0  0  0  0  0  0  0  0  0  0
   -0.8725   -1.0918   -0.2269 O   0  0  0  0  0  0  0  0  0  0  0  0
    1.8119   -0.8420   -1.9114 O   0  0  0  0  0  0  0  0  0  0  0  0
    6.1088    6.8002   -2.2974 H   0  0  0  0  0  0  0  0  0  0  0  0
    6.0404    2.5772   -6.9947 H   0  0  0  0  0  0  0  0  0  0  0  0
    2.2242    2.8136    0.8255 H   0  0  0  0  0  0  0  0  0  0  0  0
    3.8108    7.9855   -1.5023 H   0  0  0  0  0  0  0  0  0  0  0  0
    4.0574    5.4830   -4.1774 H   0  0  0  0  0  0  0  0  0  0  0  0
    5.3287    3.8428   -2.3759 H   0  0  0  0  0  0  0  0  0  0  0  0
    2.1261    7.7259    0.3026 H   0  0  0  0  0  0  0  0  0  0  0  0
    3.6798    7.9693   -3.8306 H   0  0  0  0  0  0  0  0  0  0  0  0
    5.3434    8.2757   -4.3336 H   0  0  0  0  0  0  0  0  0  0  0  0
    7.3338    5.2713   -0.9887 H   0  0  0  0  0  0  0  0  0  0  0  0
    8.0800    4.9122   -3.1545 H   0  0  0  0  0  0  0  0  0  0  0  0
    3.5871    7.3454    1.9344 H   0  0  0  0  0  0  0  0  0  0  0  0
    3.1687    4.8588    0.4616 H   0  0  0  0  0  0  0  0  0  0  0  0
    2.3248    4.7439   -2.3999 H   0  0  0  0  0  0  0  0  0  0  0  0
    3.7630    8.5295   -5.9413 H   0  0  0  0  0  0  0  0  0  0  0  0
    7.3436    4.4062   -5.5496 H   0  0  0  0  0  0  0  0  0  0  0  0
    8.1986    2.7711   -3.9640 H   0  0  0  0  0  0  0  0  0  0  0  0
    1.0945    6.1654    1.8617 H   0  0  0  0  0  0  0  0  0  0  0  0
    0.3772    5.7635   -0.2944 H   0  0  0  0  0  0  0  0  0  0  0  0
   -0.3739    6.1486   -2.6113 H   0  0  0  0  0  0  0  0  0  0  0  0
    0.6916    5.7421   -3.9676 H   0  0  0  0  0  0  0  0  0  0  0  0
   -0.0424    4.4487   -3.0069 H   0  0  0  0  0  0  0  0  0  0  0  0
    0.0797    3.7848    0.4427 H   0  0  0  0  0  0  0  0  0  0  0  0
    3.3914    2.0938   -5.5484 H   0  0  0  0  0  0  0  0  0  0  0  0
    3.7656    4.6267   -6.8379 H   0  0  0  0  0  0  0  0  0  0  0  0
    0.0117    1.6316    0.9102 H   0  0  0  0  0  0  0  0  0  0  0  0
    3.3697    2.9850   -1.2884 H   0  0  0  0  0  0  0  0  0  0  0  0
    4.2684    0.8204   -8.1941 H   0  0  0  0  0  0  0  0  0  0  0  0
    5.5962    0.4511   -6.2324 H   0  0  0  0  0  0  0  0  0  0  0  0
    6.1145    5.5273   -7.3485 H   0  0  0  0  0  0  0  0  0  0  0  0
    6.1676    4.4725   -8.7537 H   0  0  0  0  0  0  0  0  0  0  0  0
    1.1641    1.5829   -2.3534 H   0  0  0  0  0  0  0  0  0  0  0  0
    3.8873    0.5985   -1.8848 H   0  0  0  0  0  0  0  0  0  0  0  0
    2.0117    2.8487   -7.6689 H   0  0  0  0  0  0  0  0  0  0  0  0
    2.1990   -0.0490   -8.1006 H   0  0  0  0  0  0  0  0  0  0  0  0
    5.5559    6.6198   -9.1504 H   0  0  0  0  0  0  0  0  0  0  0  0
    0.7659   -1.8748    0.7197 H   0  0  0  0  0  0  0  0  0  0  0  0
   -0.1223   -0.6716    1.6400 H   0  0  0  0  0  0  0  0  0  0  0  0
    2.8218   -1.0644   -0.1648 H   0  0  0  0  0  0  0  0  0  0  0  0
    3.7119    1.1015    0.8846 H   0  0  0  0  0  0  0  0  0  0  0  0
    1.8948    2.7847   -9.9193 H   0  0  0  0  0  0  0  0  0  0  0  0
   -1.3999   -1.8116    0.1813 H   0  0  0  0  0  0  0  0  0  0  0  0
    1.2952   -0.1365   -2.3509 H   0  0  0  0  0  0  0  0  0  0  0  0
  2  1  1  0  0  0  0 
  2  4  1  0  0  0  0 
  5  2  1  0  0  0  0 
  2 45  1  0  0  0  0 
  3  1  1  0  0  0  0 
  6  3  1  0  0  0  0 
  3  7  1  0  0  0  0 
  4  8  1  0  0  0  0 
  4  9  1  0  0  0  0 
  5 10  1  0  0  0  0 
 11  5  1  0  0  0  0 
  6 12  1  0  0  0  0 
 13  6  1  0  0  0  0 
 14  7  1  0  0  0  0 
  8 15  1  0  0  0  0 
 16  9  1  0  0  0  0 
 16 11  1  0  0  0  0 
 11 17  1  0  0  0  0 
 13 18  1  0  0  0  0 
 19 13  1  0  0  0  0 
 19 14  1  0  0  0  0 
 14 20  1  0  0  0  0 
 16 21  1  0  0  0  0 
 19 22  1  0  0  0  0 
 23 21  1  0  0  0  0 
 24 22  1  0  0  0  0 
 25 23  1  0  0  0  0 
 23 26  1  0  0  0  0 
 23 46  1  0  0  0  0 
 24 27  1  0  0  0  0 
 28 24  1  0  0  0  0 
 24 47  1  0  0  0  0 
 29 25  1  0  0  0  0 
 25 30  1  0  0  0  0 
 26 31  1  0  0  0  0 
 26 32  1  0  0  0  0 
 27 33  2  0  0  0  0 
 28 34  1  0  0  0  0 
 28 35  1  0  0  0  0 
 29 36  1  0  0  0  0 
 29 37  1  0  0  0  0 
 31 38  1  0  0  0  0 
 33 39  1  0  0  0  0 
 40 33  1  0  0  0  0 
 35 40  1  0  0  0  0 
 35 41  1  0  0  0  0 
 36 42  1  0  0  0  0 
 39 43  1  0  0  0  0 
 40 44  1  0  0  0  0 
 32 36  1  0  0  0  0 
  3 48  1  0  0  0  0 
  4 49  1  0  0  0  0 
  5 50  1  0  0  0  0 
  6 51  1  0  0  0  0 
  8 52  1  0  0  0  0 
  8 53  1  0  0  0  0 
 10 54  1  0  0  0  0 
 11 55  1  0  0  0  0 
 12 56  1  0  0  0  0 
 13 57  1  0  0  0  0 
 14 58  1  0  0  0  0 
 15 59  1  0  0  0  0 
 16 60  1  0  0  0  0 
 17 61  1  0  0  0  0 
 18 62  1  0  0  0  0 
 19 63  1  0  0  0  0 
 20 64  1  0  0  0  0 
 20 65  1  0  0  0  0 
 20 66  1  0  0  0  0 
 22 67  1  0  0  0  0 
 25 68  1  0  0  0  0 
 26 69  1  0  0  0  0 
 27 70  1  0  0  0  0 
 28 71  1  0  0  0  0 
 29 72  1  0  0  0  0 
 30 73  1  0  0  0  0 
 31 74  1  0  0  0  0 
 31 75  1  0  0  0  0 
 34 76  1  0  0  0  0 
 35 77  1  0  0  0  0 
 36 78  1  0  0  0  0 
 37 79  1  0  0  0  0 
 38 80  1  0  0  0  0 
 39 81  1  0  0  0  0 
 39 82  1  0  0  0  0 
 40 83  1  0  0  0  0 
 41 84  1  0  0  0  0 
 42 85  1  0  0  0  0 
 43 86  1  0  0  0  0 
 44 87  1  0  0  0  0 
M  END
> <cdk:Title>
acarbose

> <Conformer>
3

> <SuperDrugID>
SD000017

$$$$
acarbose
  CDK     0628171801

 87 90  0  0  0  0  0  0  0  0999 V2000
    4.4281    5.9191   -1.3849 O   0  0  0  0  0  0  0  0  0  0  0  0
    5.4634    5.9441   -2.3941 C   0  0  2  0  0  0  0  0  0  0  0  0
    3.4542    6.9699   -1.2132 C   0  0  2  0  0  0  0  0  0  0  0  0
    5.0243    6.1324   -3.8883 C   0  0  1  0  0  0  0  0  0  0  0  0
    6.1147    4.5344   -2.2140 C   0  0  2  0  0  0  0  0  0  0  0  0
    2.9121    6.9293    0.2384 C   0  0  2  0  0  0  0  0  0  0  0  0
    2.3211    6.8063   -2.0973 O   0  0  0  0  0  0  0  0  0  0  0  0
    4.6553    7.5836   -4.2999 C   0  0  1  0  0  0  0  0  0  0  0  0
    6.1169    5.7968   -4.7779 O   0  0  0  0  0  0  0  0  0  0  0  0
    6.6554    4.3962   -0.8976 O   0  0  0  0  0  0  0  0  0  0  0  0
    7.2045    4.2026   -3.2624 C   0  0  2  0  0  0  0  0  0  0  0  0
    3.9742    7.1968    1.1520 O   0  0  0  0  0  0  0  0  0  0  0  0
    2.2717    5.5404    0.5141 C   0  0  1  0  0  0  0  0  0  0  0  0
    1.6661    5.5163   -2.0279 C   0  0  1  0  0  0  0  0  0  0  0  0
    4.2362    7.6158   -5.6615 O   0  0  0  0  0  0  0  0  0  0  0  0
    6.6175    4.4510   -4.7107 C   0  0  1  0  0  0  0  0  0  0  0  0
    7.5453    2.8214   -3.1442 O   0  0  0  0  0  0  0  0  0  0  0  0
    1.7042    5.4956    1.8266 O   0  0  0  0  0  0  0  0  0  0  0  0
    1.2076    5.1591   -0.5689 C   0  0  1  0  0  0  0  0  0  0  0  0
    0.4905    5.5495   -3.0377 C   0  0  0  0  0  0  0  0  0  0  0  0
    5.5793    3.4676   -5.1015 O   0  0  0  0  0  0  0  0  0  0  0  0
    0.6583    3.7708   -0.4469 N   0  0  1  0  0  0  0  0  0  0  0  0
    5.2330    3.0295   -6.4837 C   0  0  1  0  0  0  0  0  0  0  0  0
    1.5292    2.5821   -0.1645 C   0  0  1  0  0  0  0  0  0  0  0  0
    4.2225    1.8588   -6.2946 C   0  0  1  0  0  0  0  0  0  0  0  0
    4.6342    4.1596   -7.3935 C   0  0  1  0  0  0  0  0  0  0  0  0
    0.6832    1.4491    0.2159 C   0  0  0  0  0  0  0  0  0  0  0  0
    2.5221    2.2334   -1.3144 C   0  0  2  0  0  0  0  0  0  0  0  0
    3.5797    1.4099   -7.6319 C   0  0  2  0  0  0  0  0  0  0  0  0
    4.8671    0.7470   -5.6701 O   0  0  0  0  0  0  0  0  0  0  0  0
    5.6946    5.1297   -7.9838 C   0  0  1  0  0  0  0  0  0  0  0  0
    3.9752    3.6330   -8.5685 O   0  0  0  0  0  0  0  0  0  0  0  0
    0.9286    0.1517   -0.0843 C   0  0  0  0  0  0  0  0  0  0  0  0
    1.8717    2.2883   -2.5851 O   0  0  0  0  0  0  0  0  0  0  0  0
    3.1638    0.8351   -1.1185 C   0  0  2  0  0  0  0  0  0  0  0  0
    2.9641    2.6367   -8.3460 C   0  0  1  0  0  0  0  0  0  0  0  0
    2.5785    0.4199   -7.3943 O   0  0  0  0  0  0  0  0  0  0  0  0
    5.0673    6.1876   -8.7020 O   0  0  0  0  0  0  0  0  0  0  0  0
    0.0479   -0.8999    0.4284 C   0  0  2  0  0  0  0  0  0  0  0  0
    2.0801   -0.2605   -0.8999 C   0  0  2  0  0  0  0  0  0  0  0  0
    4.0689    0.8606   -0.0136 O   0  0  0  0  0  0  0  0  0  0  0  0
    2.4558    2.2478   -9.6199 O   0  0  0  0  0  0  0  0  0  0  0  0
    0.6406   -1.4723    1.5895 O   0  0  0  0  0  0  0  0  0  0  0  0
    1.6077   -0.7347   -2.1631 O   0  0  0  0  0  0  0  0  0  0  0  0
    6.1973    6.7119   -2.1286 H   0  0  0  0  0  0  0  0  0  0  0  0
    6.1305    2.6275   -6.9629 H   0  0  0  0  0  0  0  0  0  0  0  0
    2.1098    2.7851    0.7382 H   0  0  0  0  0  0  0  0  0  0  0  0
    3.9130    7.9485   -1.3745 H   0  0  0  0  0  0  0  0  0  0  0  0
    4.1623    5.4903   -4.0927 H   0  0  0  0  0  0  0  0  0  0  0  0
    5.3307    3.7787   -2.3085 H   0  0  0  0  0  0  0  0  0  0  0  0
    2.1593    7.7130    0.3615 H   0  0  0  0  0  0  0  0  0  0  0  0
    3.8389    7.9814   -3.7112 H   0  0  0  0  0  0  0  0  0  0  0  0
    5.5129    8.2479   -4.1773 H   0  0  0  0  0  0  0  0  0  0  0  0
    7.3413    5.0923   -0.8170 H   0  0  0  0  0  0  0  0  0  0  0  0
    8.1290    4.7824   -2.9822 H   0  0  0  0  0  0  0  0  0  0  0  0
    3.5529    7.2318    2.0367 H   0  0  0  0  0  0  0  0  0  0  0  0
    3.0831    4.8117    0.5015 H   0  0  0  0  0  0  0  0  0  0  0  0
    2.3737    4.7781   -2.3987 H   0  0  0  0  0  0  0  0  0  0  0  0
    3.9690    8.5458   -5.8209 H   0  0  0  0  0  0  0  0  0  0  0  0
    7.4496    4.3632   -5.4097 H   0  0  0  0  0  0  0  0  0  0  0  0
    8.2115    2.6611   -3.8446 H   0  0  0  0  0  0  0  0  0  0  0  0
    0.9927    6.1695    1.8345 H   0  0  0  0  0  0  0  0  0  0  0  0
    0.3508    5.8101   -0.3661 H   0  0  0  0  0  0  0  0  0  0  0  0
   -0.2600    6.2836   -2.7367 H   0  0  0  0  0  0  0  0  0  0  0  0
    0.8587    5.8236   -4.0289 H   0  0  0  0  0  0  0  0  0  0  0  0
    0.0133    4.5707   -3.1081 H   0  0  0  0  0  0  0  0  0  0  0  0
   -0.0024    3.8162    0.3309 H   0  0  0  0  0  0  0  0  0  0  0  0
    3.4246    2.1861   -5.6200 H   0  0  0  0  0  0  0  0  0  0  0  0
    3.9172    4.7386   -6.8057 H   0  0  0  0  0  0  0  0  0  0  0  0
   -0.1126    1.6626    0.7757 H   0  0  0  0  0  0  0  0  0  0  0  0
    3.3272    2.9678   -1.3249 H   0  0  0  0  0  0  0  0  0  0  0  0
    4.3486    0.9712   -8.2752 H   0  0  0  0  0  0  0  0  0  0  0  0
    5.5865    0.4829   -6.2836 H   0  0  0  0  0  0  0  0  0  0  0  0
    6.3074    5.5853   -7.2153 H   0  0  0  0  0  0  0  0  0  0  0  0
    6.3609    4.5943   -8.6628 H   0  0  0  0  0  0  0  0  0  0  0  0
    1.0787    1.7223   -2.4951 H   0  0  0  0  0  0  0  0  0  0  0  0
    3.7641    0.5892   -1.9995 H   0  0  0  0  0  0  0  0  0  0  0  0
    2.1374    3.0541   -7.7609 H   0  0  0  0  0  0  0  0  0  0  0  0
    2.2494    0.1713   -8.2844 H   0  0  0  0  0  0  0  0  0  0  0  0
    5.7974    6.7887   -8.9550 H   0  0  0  0  0  0  0  0  0  0  0  0
   -0.0927   -1.6885   -0.3152 H   0  0  0  0  0  0  0  0  0  0  0  0
   -0.9434   -0.5252    0.7009 H   0  0  0  0  0  0  0  0  0  0  0  0
    2.5729   -1.1147   -0.4246 H   0  0  0  0  0  0  0  0  0  0  0  0
    3.5127    1.0155    0.7773 H   0  0  0  0  0  0  0  0  0  0  0  0
    2.1236    3.0767  -10.0243 H   0  0  0  0  0  0  0  0  0  0  0  0
    0.0121   -2.1659    1.8818 H   0  0  0  0  0  0  0  0  0  0  0  0
    1.1230    0.0119   -2.5707 H   0  0  0  0  0  0  0  0  0  0  0  0
  2  1  1  0  0  0  0 
  2  4  1  0  0  0  0 
  5  2  1  0  0  0  0 
  2 45  1  0  0  0  0 
  3  1  1  0  0  0  0 
  6  3  1  0  0  0  0 
  3  7  1  0  0  0  0 
  4  8  1  0  0  0  0 
  4  9  1  0  0  0  0 
  5 10  1  0  0  0  0 
 11  5  1  0  0  0  0 
  6 12  1  0  0  0  0 
 13  6  1  0  0  0  0 
 14  7  1  0  0  0  0 
  8 15  1  0  0  0  0 
 16  9  1  0  0  0  0 
 16 11  1  0  0  0  0 
 11 17  1  0  0  0  0 
 13 18  1  0  0  0  0 
 19 13  1  0  0  0  0 
 19 14  1  0  0  0  0 
 14 20  1  0  0  0  0 
 16 21  1  0  0  0  0 
 19 22  1  0  0  0  0 
 23 21  1  0  0  0  0 
 24 22  1  0  0  0  0 
 25 23  1  0  0  0  0 
 23 26  1  0  0  0  0 
 23 46  1  0  0  0  0 
 24 27  1  0  0  0  0 
 28 24  1  0  0  0  0 
 24 47  1  0  0  0  0 
 29 25  1  0  0  0  0 
 25 30  1  0  0  0  0 
 26 31  1  0  0  0  0 
 26 32  1  0  0  0  0 
 27 33  2  0  0  0  0 
 28 34  1  0  0  0  0 
 28 35  1  0  0  0  0 
 29 36  1  0  0  0  0 
 29 37  1  0  0  0  0 
 31 38  1  0  0  0  0 
 33 39  1  0  0  0  0 
 40 33  1  0  0  0  0 
 35 40  1  0  0  0  0 
 35 41  1  0  0  0  0 
 36 42  1  0  0  0  0 
 39 43  1  0  0  0  0 
 40 44  1  0  0  0  0 
 32 36  1  0  0  0  0 
  3 48  1  0  0  0  0 
  4 49  1  0  0  0  0 
  5 50  1  0  0  0  0 
  6 51  1  0  0  0  0 
  8 52  1  0  0  0  0 
  8 53  1  0  0  0  0 
 10 54  1  0  0  0  0 
 11 55  1  0  0  0  0 
 12 56  1  0  0  0  0 
 13 57  1  0  0  0  0 
 14 58  1  0  0  0  0 
 15 59  1  0  0  0  0 
 16 60  1  0  0  0  0 
 17 61  1  0  0  0  0 
 18 62  1  0  0  0  0 
 19 63  1  0  0  0  0 
 20 64  1  0  0  0  0 
 20 65  1  0  0  0  0 
 20 66  1  0  0  0  0 
 22 67  1  0  0  0  0 
 25 68  1  0  0  0  0 
 26 69  1  0  0  0  0 
 27 70  1  0  0  0  0 
 28 71  1  0  0  0  0 
 29 72  1  0  0  0  0 
 30 73  1  0  0  0  0 
 31 74  1  0  0  0  0 
 31 75  1  0  0  0  0 
 34 76  1  0  0  0  0 
 35 77  1  0  0  0  0 
 36 78  1  0  0  0  0 
 37 79  1  0  0  0  0 
 38 80  1  0  0  0  0 
 39 81  1  0  0  0  0 
 39 82  1  0  0  0  0 
 40 83  1  0  0  0  0 
 41 84  1  0  0  0  0 
 42 85  1  0  0  0  0 
 43 86  1  0  0  0  0 
 44 87  1  0  0  0  0 
M  END
> <cdk:Title>
acarbose

> <Conformer>
4

> <SuperDrugID>
SD000017

$$$$
acarbose
  CDK     0628171801

 87 90  0  0  0  0  0  0  0  0999 V2000
    4.4470    6.4127   -1.5755 O   0  0  0  0  0  0  0  0  0  0  0  0
    5.6292    6.1577   -0.7752 C   0  0  2  0  0  0  0  0  0  0  0  0
    3.3028    7.1763   -1.1065 C   0  0  2  0  0  0  0  0  0  0  0  0
    6.7416    7.2563   -0.8069 C   0  0  1  0  0  0  0  0  0  0  0  0
    6.2420    4.8434   -1.3443 C   0  0  2  0  0  0  0  0  0  0  0  0
    2.7750    6.9737    0.3468 C   0  0  2  0  0  0  0  0  0  0  0  0
    2.2082    6.8752   -2.0050 O   0  0  0  0  0  0  0  0  0  0  0  0
    6.3446    8.6335   -0.2238 C   0  0  1  0  0  0  0  0  0  0  0  0
    7.8620    6.8060   -0.0092 O   0  0  0  0  0  0  0  0  0  0  0  0
    5.2773    3.7918   -1.3049 O   0  0  0  0  0  0  0  0  0  0  0  0
    7.5050    4.4034   -0.5552 C   0  0  2  0  0  0  0  0  0  0  0  0
    3.7179    7.3729    1.3384 O   0  0  0  0  0  0  0  0  0  0  0  0
    2.3296    5.5027    0.5405 C   0  0  1  0  0  0  0  0  0  0  0  0
    1.7038    5.5127   -1.9606 C   0  0  1  0  0  0  0  0  0  0  0  0
    7.4758    9.5002   -0.1972 O   0  0  0  0  0  0  0  0  0  0  0  0
    8.5286    5.6093   -0.4568 C   0  0  1  0  0  0  0  0  0  0  0  0
    8.1347    3.3268   -1.2494 O   0  0  0  0  0  0  0  0  0  0  0  0
    1.8380    5.2946    1.8647 O   0  0  0  0  0  0  0  0  0  0  0  0
    1.2493    5.1117   -0.5163 C   0  0  1  0  0  0  0  0  0  0  0  0
    0.5499    5.4265   -2.9921 C   0  0  0  0  0  0  0  0  0  0  0  0
    9.2548    5.8532   -1.7239 O   0  0  0  0  0  0  0  0  0  0  0  0
    0.7163    3.7225   -0.3813 N   0  0  1  0  0  0  0  0  0  0  0  0
   10.5913    6.4922   -1.8814 C   0  0  1  0  0  0  0  0  0  0  0  0
    1.6165    2.5378   -0.2321 C   0  0  1  0  0  0  0  0  0  0  0  0
   10.8651    6.4604   -3.4164 C   0  0  1  0  0  0  0  0  0  0  0  0
   10.6833    7.9503   -1.3040 C   0  0  1  0  0  0  0  0  0  0  0  0
    0.9195    1.5239    0.5595 C   0  0  0  0  0  0  0  0  0  0  0  0
    2.1341    2.0007   -1.5997 C   0  0  2  0  0  0  0  0  0  0  0  0
   12.0700    7.3418   -3.8372 C   0  0  2  0  0  0  0  0  0  0  0  0
   11.0736    5.1153   -3.8474 O   0  0  0  0  0  0  0  0  0  0  0  0
   10.9078    8.0197    0.2314 C   0  0  1  0  0  0  0  0  0  0  0  0
   11.8087    8.6882   -1.8327 O   0  0  0  0  0  0  0  0  0  0  0  0
    0.9844    0.1895    0.3565 C   0  0  0  0  0  0  0  0  0  0  0  0
    1.0899    1.9717   -2.5723 O   0  0  0  0  0  0  0  0  0  0  0  0
    2.7608    0.5927   -1.4366 C   0  0  2  0  0  0  0  0  0  0  0  0
   11.8823    8.7657   -3.2623 C   0  0  1  0  0  0  0  0  0  0  0  0
   12.1769    7.3850   -5.2582 O   0  0  0  0  0  0  0  0  0  0  0  0
   10.8763    9.3729    0.6763 O   0  0  0  0  0  0  0  0  0  0  0  0
    0.2580   -0.7320    1.2354 C   0  0  2  0  0  0  0  0  0  0  0  0
    1.7751   -0.3907   -0.7382 C   0  0  2  0  0  0  0  0  0  0  0  0
    3.9780    0.6917   -0.6908 O   0  0  0  0  0  0  0  0  0  0  0  0
   12.9952    9.5910   -3.5893 O   0  0  0  0  0  0  0  0  0  0  0  0
    1.1785   -1.4731    2.0305 O   0  0  0  0  0  0  0  0  0  0  0  0
    0.8922   -0.9594   -1.7074 O   0  0  0  0  0  0  0  0  0  0  0  0
    5.3679    5.9457    0.2613 H   0  0  0  0  0  0  0  0  0  0  0  0
   11.3378    5.8633   -1.3848 H   0  0  0  0  0  0  0  0  0  0  0  0
    2.4826    2.7933    0.3756 H   0  0  0  0  0  0  0  0  0  0  0  0
    3.5191    8.2337   -1.2426 H   0  0  0  0  0  0  0  0  0  0  0  0
    7.0546    7.4268   -1.8432 H   0  0  0  0  0  0  0  0  0  0  0  0
    6.5070    4.9939   -2.3955 H   0  0  0  0  0  0  0  0  0  0  0  0
    1.9044    7.6222    0.4893 H   0  0  0  0  0  0  0  0  0  0  0  0
    5.5836    9.1112   -0.8372 H   0  0  0  0  0  0  0  0  0  0  0  0
    5.9696    8.5249    0.7944 H   0  0  0  0  0  0  0  0  0  0  0  0
    5.0598    3.6740   -0.3556 H   0  0  0  0  0  0  0  0  0  0  0  0
    7.1454    3.9681    0.4191 H   0  0  0  0  0  0  0  0  0  0  0  0
    3.2634    7.2443    2.1989 H   0  0  0  0  0  0  0  0  0  0  0  0
    3.2127    4.8770    0.4213 H   0  0  0  0  0  0  0  0  0  0  0  0
    2.4982    4.8469   -2.2958 H   0  0  0  0  0  0  0  0  0  0  0  0
    7.1474   10.3399    0.1870 H   0  0  0  0  0  0  0  0  0  0  0  0
    9.2614    5.3278    0.3002 H   0  0  0  0  0  0  0  0  0  0  0  0
    8.8994    3.0732   -0.6890 H   0  0  0  0  0  0  0  0  0  0  0  0
    1.0912    5.9218    1.9660 H   0  0  0  0  0  0  0  0  0  0  0  0
    0.3796    5.7389   -0.2936 H   0  0  0  0  0  0  0  0  0  0  0  0
   -0.2448    6.1318   -2.7386 H   0  0  0  0  0  0  0  0  0  0  0  0
    0.9255    5.6685   -3.9892 H   0  0  0  0  0  0  0  0  0  0  0  0
    0.1256    4.4220   -3.0207 H   0  0  0  0  0  0  0  0  0  0  0  0
    0.1365    3.7462    0.4606 H   0  0  0  0  0  0  0  0  0  0  0  0
    9.9762    6.8257   -3.9406 H   0  0  0  0  0  0  0  0  0  0  0  0
    9.7609    8.4848   -1.5488 H   0  0  0  0  0  0  0  0  0  0  0  0
    0.3844    1.8585    1.3282 H   0  0  0  0  0  0  0  0  0  0  0  0
    2.9091    2.6597   -1.9891 H   0  0  0  0  0  0  0  0  0  0  0  0
   12.9910    6.9080   -3.4371 H   0  0  0  0  0  0  0  0  0  0  0  0
   11.8738    4.8112   -3.3684 H   0  0  0  0  0  0  0  0  0  0  0  0
   10.1481    7.4790    0.7829 H   0  0  0  0  0  0  0  0  0  0  0  0
   11.8760    7.5876    0.4917 H   0  0  0  0  0  0  0  0  0  0  0  0
    0.3594    1.4705   -2.1554 H   0  0  0  0  0  0  0  0  0  0  0  0
    3.0322    0.2029   -2.4216 H   0  0  0  0  0  0  0  0  0  0  0  0
   10.9831    9.2387   -3.6697 H   0  0  0  0  0  0  0  0  0  0  0  0
   12.9932    7.8993   -5.4351 H   0  0  0  0  0  0  0  0  0  0  0  0
   11.0423    9.3266    1.6415 H   0  0  0  0  0  0  0  0  0  0  0  0
   -0.3352   -1.4310    0.6414 H   0  0  0  0  0  0  0  0  0  0  0  0
   -0.4282   -0.2181    1.9131 H   0  0  0  0  0  0  0  0  0  0  0  0
    2.3717   -1.2198   -0.3485 H   0  0  0  0  0  0  0  0  0  0  0  0
    3.7172    1.0408    0.1873 H   0  0  0  0  0  0  0  0  0  0  0  0
   12.7793   10.4635   -3.1950 H   0  0  0  0  0  0  0  0  0  0  0  0
    0.6268   -2.0863    2.5620 H   0  0  0  0  0  0  0  0  0  0  0  0
    0.3396   -0.2195   -2.0320 H   0  0  0  0  0  0  0  0  0  0  0  0
  2  1  1  0  0  0  0 
  2  4  1  0  0  0  0 
  5  2  1  0  0  0  0 
  2 45  1  0  0  0  0 
  3  1  1  0  0  0  0 
  6  3  1  0  0  0  0 
  3  7  1  0  0  0  0 
  4  8  1  0  0  0  0 
  4  9  1  0  0  0  0 
  5 10  1  0  0  0  0 
 11  5  1  0  0  0  0 
  6 12  1  0  0  0  0 
 13  6  1  0  0  0  0 
 14  7  1  0  0  0  0 
  8 15  1  0  0  0  0 
 16  9  1  0  0  0  0 
 16 11  1  0  0  0  0 
 11 17  1  0  0  0  0 
 13 18  1  0  0  0  0 
 19 13  1  0  0  0  0 
 19 14  1  0  0  0  0 
 14 20  1  0  0  0  0 
 16 21  1  0  0  0  0 
 19 22  1  0  0  0  0 
 23 21  1  0  0  0  0 
 24 22  1  0  0  0  0 
 25 23  1  0  0  0  0 
 23 26  1  0  0  0  0 
 23 46  1  0  0  0  0 
 24 27  1  0  0  0  0 
 28 24  1  0  0  0  0 
 24 47  1  0  0  0  0 
 29 25  1  0  0  0  0 
 25 30  1  0  0  0  0 
 26 31  1  0  0  0  0 
 26 32  1  0  0  0  0 
 27 33  2  0  0  0  0 
 28 34  1  0  0  0  0 
 28 35  1  0  0  0  0 
 29 36  1  0  0  0  0 
 29 37  1  0  0  0  0 
 31 38  1  0  0  0  0 
 33 39  1  0  0  0  0 
 40 33  1  0  0  0  0 
 35 40  1  0  0  0  0 
 35 41  1  0  0  0  0 
 36 42  1  0  0  0  0 
 39 43  1  0  0  0  0 
 40 44  1  0  0  0  0 
 32 36  1  0  0  0  0 
  3 48  1  0  0  0  0 
  4 49  1  0  0  0  0 
  5 50  1  0  0  0  0 
  6 51  1  0  0  0  0 
  8 52  1  0  0  0  0 
  8 53  1  0  0  0  0 
 10 54  1  0  0  0  0 
 11 55  1  0  0  0  0 
 12 56  1  0  0  0  0 
 13 57  1  0  0  0  0 
 14 58  1  0  0  0  0 
 15 59  1  0  0  0  0 
 16 60  1  0  0  0  0 
 17 61  1  0  0  0  0 
 18 62  1  0  0  0  0 
 19 63  1  0  0  0  0 
 20 64  1  0  0  0  0 
 20 65  1  0  0  0  0 
 20 66  1  0  0  0  0 
 22 67  1  0  0  0  0 
 25 68  1  0  0  0  0 
 26 69  1  0  0  0  0 
 27 70  1  0  0  0  0 
 28 71  1  0  0  0  0 
 29 72  1  0  0  0  0 
 30 73  1  0  0  0  0 
 31 74  1  0  0  0  0 
 31 75  1  0  0  0  0 
 34 76  1  0  0  0  0 
 35 77  1  0  0  0  0 
 36 78  1  0  0  0  0 
 37 79  1  0  0  0  0 
 38 80  1  0  0  0  0 
 39 81  1  0  0  0  0 
 39 82  1  0  0  0  0 
 40 83  1  0  0  0  0 
 41 84  1  0  0  0  0 
 42 85  1  0  0  0  0 
 43 86  1  0  0  0  0 
 44 87  1  0  0  0  0 
M  END
> <cdk:Title>
acarbose

> <Conformer>
5

> <SuperDrugID>
SD000017

$$$$
acarbose
  CDK     0628171801

 87 90  0  0  0  0  0  0  0  0999 V2000
    4.3742    6.2691   -1.8811 O   0  0  0  0  0  0  0  0  0  0  0  0
    5.6229    5.9640   -1.2076 C   0  0  2  0  0  0  0  0  0  0  0  0
    3.3249    7.0796   -1.2876 C   0  0  2  0  0  0  0  0  0  0  0  0
    6.7747    7.0205   -1.3361 C   0  0  1  0  0  0  0  0  0  0  0  0
    6.1109    4.6382   -1.8651 C   0  0  2  0  0  0  0  0  0  0  0  0
    2.9291    6.8762    0.2076 C   0  0  2  0  0  0  0  0  0  0  0  0
    2.1285    6.8588   -2.0713 O   0  0  0  0  0  0  0  0  0  0  0  0
    6.4945    8.3989   -0.6883 C   0  0  1  0  0  0  0  0  0  0  0  0
    7.9557    6.5113   -0.6704 O   0  0  0  0  0  0  0  0  0  0  0  0
    5.1075    3.6248   -1.7635 O   0  0  0  0  0  0  0  0  0  0  0  0
    7.4282    4.1323   -1.2199 C   0  0  2  0  0  0  0  0  0  0  0  0
    3.9799    7.2188    1.1067 O   0  0  0  0  0  0  0  0  0  0  0  0
    2.4275    5.4263    0.4247 C   0  0  1  0  0  0  0  0  0  0  0  0
    1.5458    5.5299   -1.9938 C   0  0  1  0  0  0  0  0  0  0  0  0
    7.6544    9.2240   -0.7404 O   0  0  0  0  0  0  0  0  0  0  0  0
    8.5104    5.2911   -1.2059 C   0  0  1  0  0  0  0  0  0  0  0  0
    7.9264    3.0452   -1.9982 O   0  0  0  0  0  0  0  0  0  0  0  0
    2.0622    5.2153    1.7885 O   0  0  0  0  0  0  0  0  0  0  0  0
    1.2226    5.1169   -0.5179 C   0  0  1  0  0  0  0  0  0  0  0  0
    0.2799    5.5486   -2.8865 C   0  0  0  0  0  0  0  0  0  0  0  0
    9.1195    5.5306   -2.5346 O   0  0  0  0  0  0  0  0  0  0  0  0
    0.6239    3.7562   -0.3552 N   0  0  1  0  0  0  0  0  0  0  0  0
   10.4781    6.0832   -2.8102 C   0  0  1  0  0  0  0  0  0  0  0  0
    1.4622    2.5166   -0.2904 C   0  0  1  0  0  0  0  0  0  0  0  0
   10.5971    6.0532   -4.3622 C   0  0  1  0  0  0  0  0  0  0  0  0
   10.7124    7.5225   -2.2232 C   0  0  1  0  0  0  0  0  0  0  0  0
    0.7866    1.5325    0.5539 C   0  0  0  0  0  0  0  0  0  0  0  0
    1.8286    1.9649   -1.7022 C   0  0  2  0  0  0  0  0  0  0  0  0
   11.7803    6.8925   -4.9057 C   0  0  2  0  0  0  0  0  0  0  0  0
   10.7222    4.7036   -4.8104 O   0  0  0  0  0  0  0  0  0  0  0  0
   11.1122    7.5226   -0.7215 C   0  0  1  0  0  0  0  0  0  0  0  0
   11.7985    8.2268   -2.8724 O   0  0  0  0  0  0  0  0  0  0  0  0
    0.7979    0.1951    0.3585 C   0  0  0  0  0  0  0  0  0  0  0  0
    0.7029    1.9886   -2.5810 O   0  0  0  0  0  0  0  0  0  0  0  0
    2.4093    0.5298   -1.6023 C   0  0  2  0  0  0  0  0  0  0  0  0
   11.7154    8.3147   -4.3028 C   0  0  1  0  0  0  0  0  0  0  0  0
   11.7185    6.9535   -6.3299 O   0  0  0  0  0  0  0  0  0  0  0  0
   11.1645    8.8528   -0.2157 O   0  0  0  0  0  0  0  0  0  0  0  0
    0.1056   -0.6693    1.3157 C   0  0  2  0  0  0  0  0  0  0  0  0
    1.4815   -0.4207   -0.7873 C   0  0  2  0  0  0  0  0  0  0  0  0
    3.7042    0.5763   -0.9982 O   0  0  0  0  0  0  0  0  0  0  0  0
   12.8139    9.1002   -4.7523 O   0  0  0  0  0  0  0  0  0  0  0  0
   -1.2968   -0.4212    1.2870 O   0  0  0  0  0  0  0  0  0  0  0  0
    0.4977   -1.0071   -1.6417 O   0  0  0  0  0  0  0  0  0  0  0  0
    5.4566    5.7442   -0.1514 H   0  0  0  0  0  0  0  0  0  0  0  0
   11.2329    5.4058   -2.3954 H   0  0  0  0  0  0  0  0  0  0  0  0
    2.3898    2.7169    0.2449 H   0  0  0  0  0  0  0  0  0  0  0  0
    3.5850    8.1256   -1.4348 H   0  0  0  0  0  0  0  0  0  0  0  0
    6.9879    7.2023   -2.3956 H   0  0  0  0  0  0  0  0  0  0  0  0
    6.2812    4.8175   -2.9315 H   0  0  0  0  0  0  0  0  0  0  0  0
    2.1095    7.5656    0.4329 H   0  0  0  0  0  0  0  0  0  0  0  0
    5.7018    8.9209   -1.2205 H   0  0  0  0  0  0  0  0  0  0  0  0
    6.2129    8.2821    0.3574 H   0  0  0  0  0  0  0  0  0  0  0  0
    4.9642    3.5010   -0.8020 H   0  0  0  0  0  0  0  0  0  0  0  0
    7.1533    3.6966   -0.2174 H   0  0  0  0  0  0  0  0  0  0  0  0
    3.6126    7.0879    2.0051 H   0  0  0  0  0  0  0  0  0  0  0  0
    3.2534    4.7532    0.2008 H   0  0  0  0  0  0  0  0  0  0  0  0
    2.2471    4.8227   -2.4343 H   0  0  0  0  0  0  0  0  0  0  0  0
    7.3870   10.0621   -0.3085 H   0  0  0  0  0  0  0  0  0  0  0  0
    9.3016    4.9522   -0.5337 H   0  0  0  0  0  0  0  0  0  0  0  0
    8.7569    2.7742   -1.5553 H   0  0  0  0  0  0  0  0  0  0  0  0
    1.3464    5.8604    1.9677 H   0  0  0  0  0  0  0  0  0  0  0  0
    0.4205    5.7872   -0.1919 H   0  0  0  0  0  0  0  0  0  0  0  0
   -0.4556    6.2535   -2.4920 H   0  0  0  0  0  0  0  0  0  0  0  0
    0.5454    5.8573   -3.8999 H   0  0  0  0  0  0  0  0  0  0  0  0
   -0.1737    4.5580   -2.9358 H   0  0  0  0  0  0  0  0  0  0  0  0
    0.1134    3.7965    0.5305 H   0  0  0  0  0  0  0  0  0  0  0  0
    9.6746    6.4540   -4.7920 H   0  0  0  0  0  0  0  0  0  0  0  0
    9.7931    8.1037   -2.3444 H   0  0  0  0  0  0  0  0  0  0  0  0
    0.3090    1.8853    1.3546 H   0  0  0  0  0  0  0  0  0  0  0  0
    2.5921    2.5979   -2.1530 H   0  0  0  0  0  0  0  0  0  0  0  0
   12.7265    6.4205   -4.6224 H   0  0  0  0  0  0  0  0  0  0  0  0
   11.5552    4.3753   -4.4083 H   0  0  0  0  0  0  0  0  0  0  0  0
   10.4028    6.9698   -0.1123 H   0  0  0  0  0  0  0  0  0  0  0  0
   12.0972    7.0659   -0.5993 H   0  0  0  0  0  0  0  0  0  0  0  0
    0.0042    1.4747   -2.1276 H   0  0  0  0  0  0  0  0  0  0  0  0
    2.5566    0.1309   -2.6096 H   0  0  0  0  0  0  0  0  0  0  0  0
   10.7940    8.8202   -4.6050 H   0  0  0  0  0  0  0  0  0  0  0  0
   12.5128    7.4639   -6.5959 H   0  0  0  0  0  0  0  0  0  0  0  0
   11.4076    8.7522    0.7271 H   0  0  0  0  0  0  0  0  0  0  0  0
    0.4782   -0.4844    2.3268 H   0  0  0  0  0  0  0  0  0  0  0  0
    0.2624   -1.7287    1.0975 H   0  0  0  0  0  0  0  0  0  0  0  0
    2.1019   -1.2460   -0.4240 H   0  0  0  0  0  0  0  0  0  0  0  0
    3.5581    0.9114   -0.0886 H   0  0  0  0  0  0  0  0  0  0  0  0
   12.6908    9.9716   -4.3192 H   0  0  0  0  0  0  0  0  0  0  0  0
   -1.6727   -1.0275    1.9598 H   0  0  0  0  0  0  0  0  0  0  0  0
   -0.0677   -0.2665   -1.9412 H   0  0  0  0  0  0  0  0  0  0  0  0
  2  1  1  0  0  0  0 
  2  4  1  0  0  0  0 
  5  2  1  0  0  0  0 
  2 45  1  0  0  0  0 
  3  1  1  0  0  0  0 
  6  3  1  0  0  0  0 
  3  7  1  0  0  0  0 
  4  8  1  0  0  0  0 
  4  9  1  0  0  0  0 
  5 10  1  0  0  0  0 
 11  5  1  0  0  0  0 
  6 12  1  0  0  0  0 
 13  6  1  0  0  0  0 
 14  7  1  0  0  0  0 
  8 15  1  0  0  0  0 
 16  9  1  0  0  0  0 
 16 11  1  0  0  0  0 
 11 17  1  0  0  0  0 
 13 18  1  0  0  0  0 
 19 13  1  0  0  0  0 
 19 14  1  0  0  0  0 
 14 20  1  0  0  0  0 
 16 21  1  0  0  0  0 
 19 22  1  0  0  0  0 
 23 21  1  0  0  0  0 
 24 22  1  0  0  0  0 
 25 23  1  0  0  0  0 
 23 26  1  0  0  0  0 
 23 46  1  0  0  0  0 
 24 27  1  0  0  0  0 
 28 24  1  0  0  0  0 
 24 47  1  0  0  0  0 
 29 25  1  0  0  0  0 
 25 30  1  0  0  0  0 
 26 31  1  0  0  0  0 
 26 32  1  0  0  0  0 
 27 33  2  0  0  0  0 
 28 34  1  0  0  0  0 
 28 35  1  0  0  0  0 
 29 36  1  0  0  0  0 
 29 37  1  0  0  0  0 
 31 38  1  0  0  0  0 
 33 39  1  0  0  0  0 
 40 33  1  0  0  0  0 
 35 40  1  0  0  0  0 
 35 41  1  0  0  0  0 
 36 42  1  0  0  0  0 
 39 43  1  0  0  0  0 
 40 44  1  0  0  0  0 
 32 36  1  0  0  0  0 
  3 48  1  0  0  0  0 
  4 49  1  0  0  0  0 
  5 50  1  0  0  0  0 
  6 51  1  0  0  0  0 
  8 52  1  0  0  0  0 
  8 53  1  0  0  0  0 
 10 54  1  0  0  0  0 
 11 55  1  0  0  0  0 
 12 56  1  0  0  0  0 
 13 57  1  0  0  0  0 
 14 58  1  0  0  0  0 
 15 59  1  0  0  0  0 
 16 60  1  0  0  0  0 
 17 61  1  0  0  0  0 
 18 62  1  0  0  0  0 
 19 63  1  0  0  0  0 
 20 64  1  0  0  0  0 
 20 65  1  0  0  0  0 
 20 66  1  0  0  0  0 
 22 67  1  0  0  0  0 
 25 68  1  0  0  0  0 
 26 69  1  0  0  0  0 
 27 70  1  0  0  0  0 
 28 71  1  0  0  0  0 
 29 72  1  0  0  0  0 
 30 73  1  0  0  0  0 
 31 74  1  0  0  0  0 
 31 75  1  0  0  0  0 
 34 76  1  0  0  0  0 
 35 77  1  0  0  0  0 
 36 78  1  0  0  0  0 
 37 79  1  0  0  0  0 
 38 80  1  0  0  0  0 
 39 81  1  0  0  0  0 
 39 82  1  0  0  0  0 
 40 83  1  0  0  0  0 
 41 84  1  0  0  0  0 
 42 85  1  0  0  0  0 
 43 86  1  0  0  0  0 
 44 87  1  0  0  0  0 
M  END
> <cdk:Title>
acarbose

> <Conformer>
6

> <SuperDrugID>
SD000017

$$$$
acarbose
  CDK     0628171801

 87 90  0  0  0  0  0  0  0  0999 V2000
    4.3979    6.3221   -1.6777 O   0  0  0  0  0  0  0  0  0  0  0  0
    5.6036    6.1197   -0.8910 C   0  0  2  0  0  0  0  0  0  0  0  0
    3.2630    7.1208   -1.2346 C   0  0  2  0  0  0  0  0  0  0  0  0
    6.6850    7.2523   -0.9334 C   0  0  1  0  0  0  0  0  0  0  0  0
    6.2560    4.8256   -1.4716 C   0  0  2  0  0  0  0  0  0  0  0  0
    2.7713    7.0112    0.2395 C   0  0  2  0  0  0  0  0  0  0  0  0
    2.1272    6.7920   -2.0689 O   0  0  0  0  0  0  0  0  0  0  0  0
    6.2677    8.6160   -0.3324 C   0  0  1  0  0  0  0  0  0  0  0  0
    7.8206    6.8324   -0.1411 O   0  0  0  0  0  0  0  0  0  0  0  0
    5.3389    3.7338   -1.4431 O   0  0  0  0  0  0  0  0  0  0  0  0
    7.5424    4.4256   -0.6980 C   0  0  2  0  0  0  0  0  0  0  0  0
    3.7369    7.4697    1.1776 O   0  0  0  0  0  0  0  0  0  0  0  0
    2.3439    5.5541    0.5423 C   0  0  1  0  0  0  0  0  0  0  0  0
    1.5925    5.4494   -1.9363 C   0  0  1  0  0  0  0  0  0  0  0  0
    7.3373    9.5526   -0.3973 O   0  0  0  0  0  0  0  0  0  0  0  0
    8.5250    5.6668   -0.6073 C   0  0  1  0  0  0  0  0  0  0  0  0
    8.2155    3.3831   -1.4023 O   0  0  0  0  0  0  0  0  0  0  0  0
    1.8822    5.4503    1.8894 O   0  0  0  0  0  0  0  0  0  0  0  0
    1.2404    5.0843   -0.4522 C   0  0  1  0  0  0  0  0  0  0  0  0
    0.3524    5.3705   -2.8632 C   0  0  0  0  0  0  0  0  0  0  0  0
    9.2165    5.9632   -1.8835 O   0  0  0  0  0  0  0  0  0  0  0  0
    0.7738    3.6798   -0.2356 N   0  0  1  0  0  0  0  0  0  0  0  0
   10.5025    6.6956   -2.0641 C   0  0  1  0  0  0  0  0  0  0  0  0
    1.7196    2.5244   -0.1216 C   0  0  1  0  0  0  0  0  0  0  0  0
   10.7438    6.6838   -3.6039 C   0  0  1  0  0  0  0  0  0  0  0  0
   10.5169    8.1544   -1.4788 C   0  0  1  0  0  0  0  0  0  0  0  0
    1.0688    1.4582    0.6386 C   0  0  0  0  0  0  0  0  0  0  0  0
    2.2643    2.0363   -1.4981 C   0  0  2  0  0  0  0  0  0  0  0  0
   11.8914    7.6220   -4.0509 C   0  0  2  0  0  0  0  0  0  0  0  0
   11.0115    5.3536   -4.0479 O   0  0  0  0  0  0  0  0  0  0  0  0
   10.7485    8.2158    0.0592 C   0  0  1  0  0  0  0  0  0  0  0  0
   11.5887    8.9607   -2.0270 O   0  0  0  0  0  0  0  0  0  0  0  0
    1.2246    0.1320    0.4227 C   0  0  0  0  0  0  0  0  0  0  0  0
    1.2331    2.0128   -2.4855 O   0  0  0  0  0  0  0  0  0  0  0  0
    2.9525    0.6532   -1.3841 C   0  0  2  0  0  0  0  0  0  0  0  0
   11.6567    9.0322   -3.4612 C   0  0  1  0  0  0  0  0  0  0  0  0
   11.9489    7.6708   -5.4774 O   0  0  0  0  0  0  0  0  0  0  0  0
   10.5980    9.5468    0.5426 O   0  0  0  0  0  0  0  0  0  0  0  0
    0.5443   -0.8308    1.2909 C   0  0  2  0  0  0  0  0  0  0  0  0
    2.0417   -0.3902   -0.6815 C   0  0  2  0  0  0  0  0  0  0  0  0
    4.1834    0.7854   -0.6690 O   0  0  0  0  0  0  0  0  0  0  0  0
   12.7545    9.8738   -3.7954 O   0  0  0  0  0  0  0  0  0  0  0  0
   -0.7726   -1.0667    0.8038 O   0  0  0  0  0  0  0  0  0  0  0  0
    1.1848   -1.0049   -1.6427 O   0  0  0  0  0  0  0  0  0  0  0  0
    5.3618    5.9042    0.1507 H   0  0  0  0  0  0  0  0  0  0  0  0
   11.2971    6.1153   -1.5882 H   0  0  0  0  0  0  0  0  0  0  0  0
    2.5674    2.8062    0.5020 H   0  0  0  0  0  0  0  0  0  0  0  0
    3.4724    8.1677   -1.4482 H   0  0  0  0  0  0  0  0  0  0  0  0
    6.9839    7.4297   -1.9733 H   0  0  0  0  0  0  0  0  0  0  0  0
    6.5077    4.9901   -2.5239 H   0  0  0  0  0  0  0  0  0  0  0  0
    1.9024    7.6675    0.3620 H   0  0  0  0  0  0  0  0  0  0  0  0
    5.4353    9.0411   -0.8822 H   0  0  0  0  0  0  0  0  0  0  0  0
    5.9919    8.5054    0.7150 H   0  0  0  0  0  0  0  0  0  0  0  0
    5.1329    3.6016   -0.4944 H   0  0  0  0  0  0  0  0  0  0  0  0
    7.2078    3.9701    0.2783 H   0  0  0  0  0  0  0  0  0  0  0  0
    3.3172    7.3504    2.0538 H   0  0  0  0  0  0  0  0  0  0  0  0
    3.2267    4.9239    0.4499 H   0  0  0  0  0  0  0  0  0  0  0  0
    2.3395    4.7645   -2.3269 H   0  0  0  0  0  0  0  0  0  0  0  0
    6.9937   10.3622    0.0373 H   0  0  0  0  0  0  0  0  0  0  0  0
    9.2863    5.4069    0.1289 H   0  0  0  0  0  0  0  0  0  0  0  0
    9.0248    3.2008   -0.8770 H   0  0  0  0  0  0  0  0  0  0  0  0
    1.1256    6.0712    1.9496 H   0  0  0  0  0  0  0  0  0  0  0  0
    0.3619    5.6882   -0.2040 H   0  0  0  0  0  0  0  0  0  0  0  0
   -0.4061    6.0901   -2.5477 H   0  0  0  0  0  0  0  0  0  0  0  0
    0.6345    5.5993   -3.8922 H   0  0  0  0  0  0  0  0  0  0  0  0
   -0.0866    4.3725   -2.8428 H   0  0  0  0  0  0  0  0  0  0  0  0
    0.2593    3.7108    0.6483 H   0  0  0  0  0  0  0  0  0  0  0  0
    9.8277    7.0091   -4.1057 H   0  0  0  0  0  0  0  0  0  0  0  0
    9.5595    8.6292   -1.7133 H   0  0  0  0  0  0  0  0  0  0  0  0
    0.4933    1.7475    1.3990 H   0  0  0  0  0  0  0  0  0  0  0  0
    3.0221    2.7293   -1.8502 H   0  0  0  0  0  0  0  0  0  0  0  0
   12.8460    7.2361   -3.6832 H   0  0  0  0  0  0  0  0  0  0  0  0
   11.8239    5.0815   -3.5714 H   0  0  0  0  0  0  0  0  0  0  0  0
   10.0409    7.6077    0.6101 H   0  0  0  0  0  0  0  0  0  0  0  0
   11.7527    7.8615    0.3018 H   0  0  0  0  0  0  0  0  0  0  0  0
    0.5203    1.4533   -2.1151 H   0  0  0  0  0  0  0  0  0  0  0  0
    3.2144    0.2956   -2.3838 H   0  0  0  0  0  0  0  0  0  0  0  0
   10.7473    9.4846   -3.8690 H   0  0  0  0  0  0  0  0  0  0  0  0
   12.6861    8.2800   -5.6968 H   0  0  0  0  0  0  0  0  0  0  0  0
   10.6781    9.4728    1.5180 H   0  0  0  0  0  0  0  0  0  0  0  0
    0.4814   -0.4666    2.3206 H   0  0  0  0  0  0  0  0  0  0  0  0
    1.0774   -1.7856    1.3227 H   0  0  0  0  0  0  0  0  0  0  0  0
    2.6940   -1.1822   -0.3036 H   0  0  0  0  0  0  0  0  0  0  0  0
    3.9378    1.0914    0.2290 H   0  0  0  0  0  0  0  0  0  0  0  0
   12.5712   10.7296   -3.3529 H   0  0  0  0  0  0  0  0  0  0  0  0
   -1.1574   -1.7209    1.4245 H   0  0  0  0  0  0  0  0  0  0  0  0
    0.5878   -0.2925   -1.9490 H   0  0  0  0  0  0  0  0  0  0  0  0
  2  1  1  0  0  0  0 
  2  4  1  0  0  0  0 
  5  2  1  0  0  0  0 
  2 45  1  0  0  0  0 
  3  1  1  0  0  0  0 
  6  3  1  0  0  0  0 
  3  7  1  0  0  0  0 
  4  8  1  0  0  0  0 
  4  9  1  0  0  0  0 
  5 10  1  0  0  0  0 
 11  5  1  0  0  0  0 
  6 12  1  0  0  0  0 
 13  6  1  0  0  0  0 
 14  7  1  0  0  0  0 
  8 15  1  0  0  0  0 
 16  9  1  0  0  0  0 
 16 11  1  0  0  0  0 
 11 17  1  0  0  0  0 
 13 18  1  0  0  0  0 
 19 13  1  0  0  0  0 
 19 14  1  0  0  0  0 
 14 20  1  0  0  0  0 
 16 21  1  0  0  0  0 
 19 22  1  0  0  0  0 
 23 21  1  0  0  0  0 
 24 22  1  0  0  0  0 
 25 23  1  0  0  0  0 
 23 26  1  0  0  0  0 
 23 46  1  0  0  0  0 
 24 27  1  0  0  0  0 
 28 24  1  0  0  0  0 
 24 47  1  0  0  0  0 
 29 25  1  0  0  0  0 
 25 30  1  0  0  0  0 
 26 31  1  0  0  0  0 
 26 32  1  0  0  0  0 
 27 33  2  0  0  0  0 
 28 34  1  0  0  0  0 
 28 35  1  0  0  0  0 
 29 36  1  0  0  0  0 
 29 37  1  0  0  0  0 
 31 38  1  0  0  0  0 
 33 39  1  0  0  0  0 
 40 33  1  0  0  0  0 
 35 40  1  0  0  0  0 
 35 41  1  0  0  0  0 
 36 42  1  0  0  0  0 
 39 43  1  0  0  0  0 
 40 44  1  0  0  0  0 
 32 36  1  0  0  0  0 
  3 48  1  0  0  0  0 
  4 49  1  0  0  0  0 
  5 50  1  0  0  0  0 
  6 51  1  0  0  0  0 
  8 52  1  0  0  0  0 
  8 53  1  0  0  0  0 
 10 54  1  0  0  0  0 
 11 55  1  0  0  0  0 
 12 56  1  0  0  0  0 
 13 57  1  0  0  0  0 
 14 58  1  0  0  0  0 
 15 59  1  0  0  0  0 
 16 60  1  0  0  0  0 
 17 61  1  0  0  0  0 
 18 62  1  0  0  0  0 
 19 63  1  0  0  0  0 
 20 64  1  0  0  0  0 
 20 65  1  0  0  0  0 
 20 66  1  0  0  0  0 
 22 67  1  0  0  0  0 
 25 68  1  0  0  0  0 
 26 69  1  0  0  0  0 
 27 70  1  0  0  0  0 
 28 71  1  0  0  0  0 
 29 72  1  0  0  0  0 
 30 73  1  0  0  0  0 
 31 74  1  0  0  0  0 
 31 75  1  0  0  0  0 
 34 76  1  0  0  0  0 
 35 77  1  0  0  0  0 
 36 78  1  0  0  0  0 
 37 79  1  0  0  0  0 
 38 80  1  0  0  0  0 
 39 81  1  0  0  0  0 
 39 82  1  0  0  0  0 
 40 83  1  0  0  0  0 
 41 84  1  0  0  0  0 
 42 85  1  0  0  0  0 
 43 86  1  0  0  0  0 
 44 87  1  0  0  0  0 
M  END
> <cdk:Title>
acarbose

> <Conformer>
7

> <SuperDrugID>
SD000017

$$$$
acarbose
  CDK     0628171801

 87 90  0  0  0  0  0  0  0  0999 V2000
    3.6321    5.0498   -3.9474 O   0  0  0  0  0  0  0  0  0  0  0  0
    3.7376    3.6011   -3.9420 C   0  0  2  0  0  0  0  0  0  0  0  0
    2.5300    5.7133   -3.2621 C   0  0  2  0  0  0  0  0  0  0  0  0
    5.2448    3.1552   -3.8868 C   0  0  1  0  0  0  0  0  0  0  0  0
    3.1115    2.9620   -5.2233 C   0  0  2  0  0  0  0  0  0  0  0  0
    2.9931    6.3774   -1.9231 C   0  0  2  0  0  0  0  0  0  0  0  0
    1.3498    4.8736   -3.1249 O   0  0  0  0  0  0  0  0  0  0  0  0
    5.8902    3.3113   -2.4880 C   0  0  1  0  0  0  0  0  0  0  0  0
    5.5002    1.7981   -4.3455 O   0  0  0  0  0  0  0  0  0  0  0  0
    1.7410    3.3259   -5.3740 O   0  0  0  0  0  0  0  0  0  0  0  0
    3.2577    1.3973   -5.2719 C   0  0  2  0  0  0  0  0  0  0  0  0
    4.3691    6.7429   -1.9437 O   0  0  0  0  0  0  0  0  0  0  0  0
    2.6548    5.4702   -0.7115 C   0  0  1  0  0  0  0  0  0  0  0  0
    0.4207    5.1679   -2.0580 C   0  0  1  0  0  0  0  0  0  0  0  0
    7.2390    2.8535   -2.5070 O   0  0  0  0  0  0  0  0  0  0  0  0
    4.3787    0.8995   -4.2615 C   0  0  1  0  0  0  0  0  0  0  0  0
    3.6767    1.0172   -6.5844 O   0  0  0  0  0  0  0  0  0  0  0  0
    3.0455    6.1118    0.5031 O   0  0  0  0  0  0  0  0  0  0  0  0
    1.1325    5.0923   -0.6594 C   0  0  1  0  0  0  0  0  0  0  0  0
   -0.3847    6.4712   -2.3233 C   0  0  0  0  0  0  0  0  0  0  0  0
    4.7500   -0.5109   -4.5295 O   0  0  0  0  0  0  0  0  0  0  0  0
    0.9017    3.8169    0.0850 N   0  0  2  0  0  0  0  0  0  0  0  0
    5.8873   -1.2701   -3.9384 C   0  0  1  0  0  0  0  0  0  0  0  0
    1.3299    2.4902   -0.4532 C   0  0  1  0  0  0  0  0  0  0  0  0
    7.1567   -1.0683   -4.8138 C   0  0  1  0  0  0  0  0  0  0  0  0
    6.1837   -0.9531   -2.4328 C   0  0  1  0  0  0  0  0  0  0  0  0
    1.8318    1.7040    0.6693 C   0  0  0  0  0  0  0  0  0  0  0  0
    0.2225    1.7784   -1.2971 C   0  0  2  0  0  0  0  0  0  0  0  0
    8.3852   -1.7962   -4.2081 C   0  0  2  0  0  0  0  0  0  0  0  0
    6.9201   -1.5415   -6.1392 O   0  0  0  0  0  0  0  0  0  0  0  0
    5.0234   -1.3763   -1.4957 C   0  0  1  0  0  0  0  0  0  0  0  0
    7.3703   -1.6434   -1.9719 O   0  0  0  0  0  0  0  0  0  0  0  0
    1.5967    0.3883    0.8777 C   0  0  0  0  0  0  0  0  0  0  0  0
   -1.0835    2.0345   -0.7805 O   0  0  0  0  0  0  0  0  0  0  0  0
    0.4570    0.2495   -1.3998 C   0  0  2  0  0  0  0  0  0  0  0  0
    8.5674   -1.3708   -2.7294 C   0  0  1  0  0  0  0  0  0  0  0  0
    9.5536   -1.4890   -4.9667 O   0  0  0  0  0  0  0  0  0  0  0  0
    5.2567   -0.9179   -0.1682 O   0  0  0  0  0  0  0  0  0  0  0  0
    2.2012   -0.2741    2.0347 C   0  0  2  0  0  0  0  0  0  0  0  0
    0.7301   -0.3946   -0.0114 C   0  0  2  0  0  0  0  0  0  0  0  0
    1.5649   -0.0034   -2.2628 O   0  0  0  0  0  0  0  0  0  0  0  0
    9.6357   -2.1101   -2.1478 O   0  0  0  0  0  0  0  0  0  0  0  0
    1.5072    0.0790    3.2257 O   0  0  0  0  0  0  0  0  0  0  0  0
   -0.4957   -0.6715    0.6678 O   0  0  0  0  0  0  0  0  0  0  0  0
    3.2306    3.1903   -3.0689 H   0  0  0  0  0  0  0  0  0  0  0  0
    5.6146   -2.3271   -4.0087 H   0  0  0  0  0  0  0  0  0  0  0  0
    2.1950    2.6208   -1.0988 H   0  0  0  0  0  0  0  0  0  0  0  0
    2.2498    6.5284   -3.9349 H   0  0  0  0  0  0  0  0  0  0  0  0
    5.8033    3.8033   -4.5685 H   0  0  0  0  0  0  0  0  0  0  0  0
    3.6288    3.4009   -6.0826 H   0  0  0  0  0  0  0  0  0  0  0  0
    2.4641    7.3233   -1.7926 H   0  0  0  0  0  0  0  0  0  0  0  0
    5.8991    4.3567   -2.1887 H   0  0  0  0  0  0  0  0  0  0  0  0
    5.3396    2.7319   -1.7452 H   0  0  0  0  0  0  0  0  0  0  0  0
    1.2805    2.8968   -4.6229 H   0  0  0  0  0  0  0  0  0  0  0  0
    2.2374    0.9373   -5.1500 H   0  0  0  0  0  0  0  0  0  0  0  0
    4.8516    5.8973   -1.9217 H   0  0  0  0  0  0  0  0  0  0  0  0
    3.2714    4.5748   -0.7929 H   0  0  0  0  0  0  0  0  0  0  0  0
   -0.3381    4.3890   -2.0990 H   0  0  0  0  0  0  0  0  0  0  0  0
    7.5655    2.9839   -1.5915 H   0  0  0  0  0  0  0  0  0  0  0  0
    3.9651    0.9164   -3.2524 H   0  0  0  0  0  0  0  0  0  0  0  0
    3.0004    1.3858   -7.1922 H   0  0  0  0  0  0  0  0  0  0  0  0
    4.0221    6.1834    0.4434 H   0  0  0  0  0  0  0  0  0  0  0  0
    0.6480    5.8357   -0.0193 H   0  0  0  0  0  0  0  0  0  0  0  0
    0.2411    7.3593   -2.2786 H   0  0  0  0  0  0  0  0  0  0  0  0
   -0.8439    6.4279   -3.3120 H   0  0  0  0  0  0  0  0  0  0  0  0
   -1.1784    6.5759   -1.5809 H   0  0  0  0  0  0  0  0  0  0  0  0
   -0.0857    3.7589    0.3436 H   0  0  0  0  0  0  0  0  0  0  0  0
    7.3807   -0.0014   -4.8861 H   0  0  0  0  0  0  0  0  0  0  0  0
    6.3419    0.1223   -2.3134 H   0  0  0  0  0  0  0  0  0  0  0  0
    2.4200    2.1852    1.3146 H   0  0  0  0  0  0  0  0  0  0  0  0
    0.2393    2.1776   -2.3138 H   0  0  0  0  0  0  0  0  0  0  0  0
    8.2255   -2.8784   -4.2541 H   0  0  0  0  0  0  0  0  0  0  0  0
    6.7101   -2.4943   -6.0380 H   0  0  0  0  0  0  0  0  0  0  0  0
    4.0791   -0.9540   -1.8319 H   0  0  0  0  0  0  0  0  0  0  0  0
    4.9253   -2.4639   -1.4795 H   0  0  0  0  0  0  0  0  0  0  0  0
   -1.0578    1.7371    0.1511 H   0  0  0  0  0  0  0  0  0  0  0  0
   -0.4150   -0.2258   -1.8596 H   0  0  0  0  0  0  0  0  0  0  0  0
    8.8230   -0.3080   -2.6674 H   0  0  0  0  0  0  0  0  0  0  0  0
   10.2664   -2.0288   -4.5651 H   0  0  0  0  0  0  0  0  0  0  0  0
    4.4811   -1.2297    0.3446 H   0  0  0  0  0  0  0  0  0  0  0  0
    3.2532    0.0076    2.1346 H   0  0  0  0  0  0  0  0  0  0  0  0
    2.1676   -1.3622    1.9466 H   0  0  0  0  0  0  0  0  0  0  0  0
    1.1936   -1.3664   -0.2035 H   0  0  0  0  0  0  0  0  0  0  0  0
    1.2846    0.3321   -3.1399 H   0  0  0  0  0  0  0  0  0  0  0  0
    9.7182   -1.7568   -1.2374 H   0  0  0  0  0  0  0  0  0  0  0  0
    1.9588   -0.4244    3.9371 H   0  0  0  0  0  0  0  0  0  0  0  0
   -0.9125    0.1973    0.8411 H   0  0  0  0  0  0  0  0  0  0  0  0
  2  1  1  0  0  0  0 
  2  4  1  0  0  0  0 
  5  2  1  0  0  0  0 
  2 45  1  0  0  0  0 
  3  1  1  0  0  0  0 
  6  3  1  0  0  0  0 
  3  7  1  0  0  0  0 
  4  8  1  0  0  0  0 
  4  9  1  0  0  0  0 
  5 10  1  0  0  0  0 
 11  5  1  0  0  0  0 
  6 12  1  0  0  0  0 
 13  6  1  0  0  0  0 
 14  7  1  0  0  0  0 
  8 15  1  0  0  0  0 
 16  9  1  0  0  0  0 
 16 11  1  0  0  0  0 
 11 17  1  0  0  0  0 
 13 18  1  0  0  0  0 
 19 13  1  0  0  0  0 
 19 14  1  0  0  0  0 
 14 20  1  0  0  0  0 
 16 21  1  0  0  0  0 
 19 22  1  0  0  0  0 
 23 21  1  0  0  0  0 
 24 22  1  0  0  0  0 
 25 23  1  0  0  0  0 
 23 26  1  0  0  0  0 
 23 46  1  0  0  0  0 
 24 27  1  0  0  0  0 
 28 24  1  0  0  0  0 
 24 47  1  0  0  0  0 
 29 25  1  0  0  0  0 
 25 30  1  0  0  0  0 
 26 31  1  0  0  0  0 
 26 32  1  0  0  0  0 
 27 33  2  0  0  0  0 
 28 34  1  0  0  0  0 
 28 35  1  0  0  0  0 
 29 36  1  0  0  0  0 
 29 37  1  0  0  0  0 
 31 38  1  0  0  0  0 
 33 39  1  0  0  0  0 
 40 33  1  0  0  0  0 
 35 40  1  0  0  0  0 
 35 41  1  0  0  0  0 
 36 42  1  0  0  0  0 
 39 43  1  0  0  0  0 
 40 44  1  0  0  0  0 
 32 36  1  0  0  0  0 
  3 48  1  0  0  0  0 
  4 49  1  0  0  0  0 
  5 50  1  0  0  0  0 
  6 51  1  0  0  0  0 
  8 52  1  0  0  0  0 
  8 53  1  0  0  0  0 
 10 54  1  0  0  0  0 
 11 55  1  0  0  0  0 
 12 56  1  0  0  0  0 
 13 57  1  0  0  0  0 
 14 58  1  0  0  0  0 
 15 59  1  0  0  0  0 
 16 60  1  0  0  0  0 
 17 61  1  0  0  0  0 
 18 62  1  0  0  0  0 
 19 63  1  0  0  0  0 
 20 64  1  0  0  0  0 
 20 65  1  0  0  0  0 
 20 66  1  0  0  0  0 
 22 67  1  0  0  0  0 
 25 68  1  0  0  0  0 
 26 69  1  0  0  0  0 
 27 70  1  0  0  0  0 
 28 71  1  0  0  0  0 
 29 72  1  0  0  0  0 
 30 73  1  0  0  0  0 
 31 74  1  0  0  0  0 
 31 75  1  0  0  0  0 
 34 76  1  0  0  0  0 
 35 77  1  0  0  0  0 
 36 78  1  0  0  0  0 
 37 79  1  0  0  0  0 
 38 80  1  0  0  0  0 
 39 81  1  0  0  0  0 
 39 82  1  0  0  0  0 
 40 83  1  0  0  0  0 
 41 84  1  0  0  0  0 
 42 85  1  0  0  0  0 
 43 86  1  0  0  0  0 
 44 87  1  0  0  0  0 
M  END
> <cdk:Title>
acarbose

> <Conformer>
8

> <SuperDrugID>
SD000017

$$$$
acarbose
  CDK     0628171801

 87 90  0  0  0  0  0  0  0  0999 V2000
    3.6315    5.0588   -3.9357 O   0  0  0  0  0  0  0  0  0  0  0  0
    3.7499    3.6118   -3.8991 C   0  0  2  0  0  0  0  0  0  0  0  0
    2.5199    5.7238   -3.2668 C   0  0  2  0  0  0  0  0  0  0  0  0
    5.2574    3.1766   -3.7627 C   0  0  1  0  0  0  0  0  0  0  0  0
    3.1763    2.9429   -5.1888 C   0  0  2  0  0  0  0  0  0  0  0  0
    2.9756    6.4116   -1.9371 C   0  0  2  0  0  0  0  0  0  0  0  0
    1.3481    4.8746   -3.1291 O   0  0  0  0  0  0  0  0  0  0  0  0
    5.8278    3.3295   -2.3290 C   0  0  1  0  0  0  0  0  0  0  0  0
    5.5411    1.8237   -4.2132 O   0  0  0  0  0  0  0  0  0  0  0  0
    1.8116    3.3000   -5.4023 O   0  0  0  0  0  0  0  0  0  0  0  0
    3.3258    1.3785   -5.1810 C   0  0  2  0  0  0  0  0  0  0  0  0
    4.3406    6.8183   -1.9687 O   0  0  0  0  0  0  0  0  0  0  0  0
    2.6570    5.5055   -0.7200 C   0  0  1  0  0  0  0  0  0  0  0  0
    0.4200    5.1636   -2.0587 C   0  0  1  0  0  0  0  0  0  0  0  0
    7.1842    2.8979   -2.2824 O   0  0  0  0  0  0  0  0  0  0  0  0
    4.4307    0.9125   -4.1353 C   0  0  1  0  0  0  0  0  0  0  0  0
    3.7729    0.9566   -6.4701 O   0  0  0  0  0  0  0  0  0  0  0  0
    3.0361    6.1609    0.4909 O   0  0  0  0  0  0  0  0  0  0  0  0
    1.1423    5.1025   -0.6654 C   0  0  1  0  0  0  0  0  0  0  0  0
   -0.3992    6.4587   -2.3368 C   0  0  0  0  0  0  0  0  0  0  0  0
    4.8275   -0.4956   -4.3681 O   0  0  0  0  0  0  0  0  0  0  0  0
    0.9418    3.8276    0.0935 N   0  0  2  0  0  0  0  0  0  0  0  0
    5.9513   -1.2330   -3.7261 C   0  0  1  0  0  0  0  0  0  0  0  0
    1.3753    2.4957   -0.4324 C   0  0  1  0  0  0  0  0  0  0  0  0
    7.2332   -1.0439   -4.5832 C   0  0  1  0  0  0  0  0  0  0  0  0
    6.2104   -0.8763   -2.2241 C   0  0  1  0  0  0  0  0  0  0  0  0
    1.8609    1.7128    0.7016 C   0  0  0  0  0  0  0  0  0  0  0  0
    0.2726    1.7864   -1.2835 C   0  0  2  0  0  0  0  0  0  0  0  0
    8.4560   -1.7411   -3.9339 C   0  0  2  0  0  0  0  0  0  0  0  0
    7.0241   -1.5615   -5.8964 O   0  0  0  0  0  0  0  0  0  0  0  0
    5.0382   -1.2960   -1.3018 C   0  0  1  0  0  0  0  0  0  0  0  0
    7.3940   -1.5439   -1.7234 O   0  0  0  0  0  0  0  0  0  0  0  0
    1.5872    0.4101    0.9385 C   0  0  0  0  0  0  0  0  0  0  0  0
   -1.0417    2.0739   -0.8026 O   0  0  0  0  0  0  0  0  0  0  0  0
    0.4879    0.2525   -1.3550 C   0  0  2  0  0  0  0  0  0  0  0  0
    8.6034   -1.2780   -2.4625 C   0  0  1  0  0  0  0  0  0  0  0  0
    9.6343   -1.4381   -4.6791 O   0  0  0  0  0  0  0  0  0  0  0  0
    5.2343   -0.7945    0.0158 O   0  0  0  0  0  0  0  0  0  0  0  0
    2.1745   -0.2740    2.0921 C   0  0  2  0  0  0  0  0  0  0  0  0
    0.7068   -0.3694    0.0535 C   0  0  2  0  0  0  0  0  0  0  0  0
    1.6190   -0.0235   -2.1816 O   0  0  0  0  0  0  0  0  0  0  0  0
    9.6678   -1.9945   -1.8442 O   0  0  0  0  0  0  0  0  0  0  0  0
    1.1845   -0.5211    3.0832 O   0  0  0  0  0  0  0  0  0  0  0  0
   -0.5447   -0.5880    0.7050 O   0  0  0  0  0  0  0  0  0  0  0  0
    3.2071    3.2048   -3.0480 H   0  0  0  0  0  0  0  0  0  0  0  0
    5.6837   -2.2921   -3.7742 H   0  0  0  0  0  0  0  0  0  0  0  0
    2.2498    2.6158   -1.0682 H   0  0  0  0  0  0  0  0  0  0  0  0
    2.2315    6.5270   -3.9489 H   0  0  0  0  0  0  0  0  0  0  0  0
    5.8494    3.8250   -4.4147 H   0  0  0  0  0  0  0  0  0  0  0  0
    3.7241    3.3595   -6.0400 H   0  0  0  0  0  0  0  0  0  0  0  0
    2.4231    7.3433   -1.8067 H   0  0  0  0  0  0  0  0  0  0  0  0
    5.8062    4.3704   -2.0205 H   0  0  0  0  0  0  0  0  0  0  0  0
    5.2468    2.7376   -1.6201 H   0  0  0  0  0  0  0  0  0  0  0  0
    1.3220    2.9073   -4.6498 H   0  0  0  0  0  0  0  0  0  0  0  0
    2.3038    0.9230   -5.0622 H   0  0  0  0  0  0  0  0  0  0  0  0
    4.8536    5.9935   -2.0401 H   0  0  0  0  0  0  0  0  0  0  0  0
    3.2868    4.6217   -0.7996 H   0  0  0  0  0  0  0  0  0  0  0  0
   -0.3331    4.3785   -2.0890 H   0  0  0  0  0  0  0  0  0  0  0  0
    7.4663    3.0479   -1.3568 H   0  0  0  0  0  0  0  0  0  0  0  0
    3.9973    0.9429   -3.1341 H   0  0  0  0  0  0  0  0  0  0  0  0
    3.0912    1.2781   -7.0967 H   0  0  0  0  0  0  0  0  0  0  0  0
    4.0023    6.3009    0.4163 H   0  0  0  0  0  0  0  0  0  0  0  0
    0.6444    5.8442   -0.0312 H   0  0  0  0  0  0  0  0  0  0  0  0
    0.2193    7.3522   -2.3141 H   0  0  0  0  0  0  0  0  0  0  0  0
   -0.8697    6.3973   -3.3195 H   0  0  0  0  0  0  0  0  0  0  0  0
   -1.1849    6.5719   -1.5869 H   0  0  0  0  0  0  0  0  0  0  0  0
   -0.0374    3.7604    0.3713 H   0  0  0  0  0  0  0  0  0  0  0  0
    7.4499    0.0228   -4.6821 H   0  0  0  0  0  0  0  0  0  0  0  0
    6.3507    0.2035   -2.1240 H   0  0  0  0  0  0  0  0  0  0  0  0
    2.4662    2.1903    1.3320 H   0  0  0  0  0  0  0  0  0  0  0  0
    0.3139    2.1647   -2.3078 H   0  0  0  0  0  0  0  0  0  0  0  0
    8.3083   -2.8258   -3.9539 H   0  0  0  0  0  0  0  0  0  0  0  0
    6.8335   -2.5154   -5.7690 H   0  0  0  0  0  0  0  0  0  0  0  0
    4.0919   -0.9073   -1.6728 H   0  0  0  0  0  0  0  0  0  0  0  0
    4.9671   -2.3842   -1.2559 H   0  0  0  0  0  0  0  0  0  0  0  0
   -1.0474    1.7976    0.1350 H   0  0  0  0  0  0  0  0  0  0  0  0
   -0.3733   -0.2201   -1.8363 H   0  0  0  0  0  0  0  0  0  0  0  0
    8.8486   -0.2119   -2.4205 H   0  0  0  0  0  0  0  0  0  0  0  0
   10.3465   -1.9612   -4.2550 H   0  0  0  0  0  0  0  0  0  0  0  0
    4.4574   -1.1100    0.5238 H   0  0  0  0  0  0  0  0  0  0  0  0
    2.9780    0.2995    2.5616 H   0  0  0  0  0  0  0  0  0  0  0  0
    2.6046   -1.2297    1.7864 H   0  0  0  0  0  0  0  0  0  0  0  0
    1.1375   -1.3623   -0.1055 H   0  0  0  0  0  0  0  0  0  0  0  0
    1.3787    0.3258   -3.0649 H   0  0  0  0  0  0  0  0  0  0  0  0
    9.7324   -1.6216   -0.9400 H   0  0  0  0  0  0  0  0  0  0  0  0
    1.6579   -1.0045    3.7923 H   0  0  0  0  0  0  0  0  0  0  0  0
   -0.8992    0.2999    0.9159 H   0  0  0  0  0  0  0  0  0  0  0  0
  2  1  1  0  0  0  0 
  2  4  1  0  0  0  0 
  5  2  1  0  0  0  0 
  2 45  1  0  0  0  0 
  3  1  1  0  0  0  0 
  6  3  1  0  0  0  0 
  3  7  1  0  0  0  0 
  4  8  1  0  0  0  0 
  4  9  1  0  0  0  0 
  5 10  1  0  0  0  0 
 11  5  1  0  0  0  0 
  6 12  1  0  0  0  0 
 13  6  1  0  0  0  0 
 14  7  1  0  0  0  0 
  8 15  1  0  0  0  0 
 16  9  1  0  0  0  0 
 16 11  1  0  0  0  0 
 11 17  1  0  0  0  0 
 13 18  1  0  0  0  0 
 19 13  1  0  0  0  0 
 19 14  1  0  0  0  0 
 14 20  1  0  0  0  0 
 16 21  1  0  0  0  0 
 19 22  1  0  0  0  0 
 23 21  1  0  0  0  0 
 24 22  1  0  0  0  0 
 25 23  1  0  0  0  0 
 23 26  1  0  0  0  0 
 23 46  1  0  0  0  0 
 24 27  1  0  0  0  0 
 28 24  1  0  0  0  0 
 24 47  1  0  0  0  0 
 29 25  1  0  0  0  0 
 25 30  1  0  0  0  0 
 26 31  1  0  0  0  0 
 26 32  1  0  0  0  0 
 27 33  2  0  0  0  0 
 28 34  1  0  0  0  0 
 28 35  1  0  0  0  0 
 29 36  1  0  0  0  0 
 29 37  1  0  0  0  0 
 31 38  1  0  0  0  0 
 33 39  1  0  0  0  0 
 40 33  1  0  0  0  0 
 35 40  1  0  0  0  0 
 35 41  1  0  0  0  0 
 36 42  1  0  0  0  0 
 39 43  1  0  0  0  0 
 40 44  1  0  0  0  0 
 32 36  1  0  0  0  0 
  3 48  1  0  0  0  0 
  4 49  1  0  0  0  0 
  5 50  1  0  0  0  0 
  6 51  1  0  0  0  0 
  8 52  1  0  0  0  0 
  8 53  1  0  0  0  0 
 10 54  1  0  0  0  0 
 11 55  1  0  0  0  0 
 12 56  1  0  0  0  0 
 13 57  1  0  0  0  0 
 14 58  1  0  0  0  0 
 15 59  1  0  0  0  0 
 16 60  1  0  0  0  0 
 17 61  1  0  0  0  0 
 18 62  1  0  0  0  0 
 19 63  1  0  0  0  0 
 20 64  1  0  0  0  0 
 20 65  1  0  0  0  0 
 20 66  1  0  0  0  0 
 22 67  1  0  0  0  0 
 25 68  1  0  0  0  0 
 26 69  1  0  0  0  0 
 27 70  1  0  0  0  0 
 28 71  1  0  0  0  0 
 29 72  1  0  0  0  0 
 30 73  1  0  0  0  0 
 31 74  1  0  0  0  0 
 31 75  1  0  0  0  0 
 34 76  1  0  0  0  0 
 35 77  1  0  0  0  0 
 36 78  1  0  0  0  0 
 37 79  1  0  0  0  0 
 38 80  1  0  0  0  0 
 39 81  1  0  0  0  0 
 39 82  1  0  0  0  0 
 40 83  1  0  0  0  0 
 41 84  1  0  0  0  0 
 42 85  1  0  0  0  0 
 43 86  1  0  0  0  0 
 44 87  1  0  0  0  0 
M  END
> <cdk:Title>
acarbose

> <Conformer>
9

> <SuperDrugID>
SD000017

$$$$
acarbose
  CDK     0628171801

 87 90  0  0  0  0  0  0  0  0999 V2000
    3.6876    4.9745   -3.8812 O   0  0  0  0  0  0  0  0  0  0  0  0
    3.7901    3.5287   -3.7943 C   0  0  2  0  0  0  0  0  0  0  0  0
    2.5691    5.6706   -3.2609 C   0  0  2  0  0  0  0  0  0  0  0  0
    5.2920    3.0936   -3.6140 C   0  0  1  0  0  0  0  0  0  0  0  0
    3.2368    2.8309   -5.0782 C   0  0  2  0  0  0  0  0  0  0  0  0
    2.9938    6.3910   -1.9388 C   0  0  2  0  0  0  0  0  0  0  0  0
    1.3855    4.8362   -3.1299 O   0  0  0  0  0  0  0  0  0  0  0  0
    5.8220    3.2575   -2.1652 C   0  0  1  0  0  0  0  0  0  0  0  0
    5.5795    1.7325   -4.0426 O   0  0  0  0  0  0  0  0  0  0  0  0
    1.8793    3.1932   -5.3268 O   0  0  0  0  0  0  0  0  0  0  0  0
    3.3762    1.2662   -5.0350 C   0  0  2  0  0  0  0  0  0  0  0  0
    4.3653    6.7761   -1.9512 O   0  0  0  0  0  0  0  0  0  0  0  0
    2.6383    5.5246   -0.7035 C   0  0  1  0  0  0  0  0  0  0  0  0
    0.4347    5.1608   -2.0915 C   0  0  1  0  0  0  0  0  0  0  0  0
    7.1965    2.8867   -2.0835 O   0  0  0  0  0  0  0  0  0  0  0  0
    4.4645    0.8231   -3.9639 C   0  0  1  0  0  0  0  0  0  0  0  0
    3.8290    0.8048   -6.3097 O   0  0  0  0  0  0  0  0  0  0  0  0
    2.9973    6.2185    0.4924 O   0  0  0  0  0  0  0  0  0  0  0  0
    1.1169    5.1379   -0.6749 C   0  0  1  0  0  0  0  0  0  0  0  0
   -0.3687    6.4490   -2.4279 C   0  0  0  0  0  0  0  0  0  0  0  0
    4.8537   -0.5962   -4.1490 O   0  0  0  0  0  0  0  0  0  0  0  0
    0.8643    3.8964    0.1200 N   0  0  2  0  0  0  0  0  0  0  0  0
    5.9673   -1.3215   -3.4763 C   0  0  1  0  0  0  0  0  0  0  0  0
    1.2931    2.5406   -0.3416 C   0  0  1  0  0  0  0  0  0  0  0  0
    7.2514   -1.1929   -4.3431 C   0  0  1  0  0  0  0  0  0  0  0  0
    6.2461   -0.8989   -1.9946 C   0  0  1  0  0  0  0  0  0  0  0  0
    1.6872    1.7832    0.8469 C   0  0  0  0  0  0  0  0  0  0  0  0
    0.2278    1.8282   -1.2395 C   0  0  2  0  0  0  0  0  0  0  0  0
    8.4642   -1.8850   -3.6689 C   0  0  2  0  0  0  0  0  0  0  0  0
    7.0308   -1.7610   -5.6336 O   0  0  0  0  0  0  0  0  0  0  0  0
    5.0755   -1.2289   -1.0353 C   0  0  1  0  0  0  0  0  0  0  0  0
    7.4135   -1.5744   -1.4677 O   0  0  0  0  0  0  0  0  0  0  0  0
    1.3697    0.4929    1.1035 C   0  0  0  0  0  0  0  0  0  0  0  0
   -1.1089    2.1535   -0.8486 O   0  0  0  0  0  0  0  0  0  0  0  0
    0.4200    0.2906   -1.2528 C   0  0  2  0  0  0  0  0  0  0  0  0
    8.6268   -1.3652   -2.2186 C   0  0  1  0  0  0  0  0  0  0  0  0
    9.6474   -1.6370   -4.4256 O   0  0  0  0  0  0  0  0  0  0  0  0
    5.2954   -0.6159    0.2303 O   0  0  0  0  0  0  0  0  0  0  0  0
    1.8473   -0.1706    2.3222 C   0  0  1  0  0  0  0  0  0  0  0  0
    0.5262   -0.2870    0.1864 C   0  0  2  0  0  0  0  0  0  0  0  0
    1.6024   -0.0425   -1.9825 O   0  0  0  0  0  0  0  0  0  0  0  0
    9.6743   -2.0777   -1.5683 O   0  0  0  0  0  0  0  0  0  0  0  0
    2.6350   -1.3153    2.0024 O   0  0  0  0  0  0  0  0  0  0  0  0
   -0.7703   -0.4436    0.7665 O   0  0  0  0  0  0  0  0  0  0  0  0
    3.2273    3.1523   -2.9390 H   0  0  0  0  0  0  0  0  0  0  0  0
    5.6840   -2.3777   -3.4705 H   0  0  0  0  0  0  0  0  0  0  0  0
    2.2071    2.6259   -0.9262 H   0  0  0  0  0  0  0  0  0  0  0  0
    2.3112    6.4573   -3.9739 H   0  0  0  0  0  0  0  0  0  0  0  0
    5.9027    3.7380   -4.2535 H   0  0  0  0  0  0  0  0  0  0  0  0
    3.8070    3.2203   -5.9270 H   0  0  0  0  0  0  0  0  0  0  0  0
    2.4491    7.3332   -1.8510 H   0  0  0  0  0  0  0  0  0  0  0  0
    5.7434    4.2924   -1.8424 H   0  0  0  0  0  0  0  0  0  0  0  0
    5.2470    2.6327   -1.4786 H   0  0  0  0  0  0  0  0  0  0  0  0
    1.3689    2.8183   -4.5784 H   0  0  0  0  0  0  0  0  0  0  0  0
    2.3493    0.8220   -4.9128 H   0  0  0  0  0  0  0  0  0  0  0  0
    4.8622    5.9396   -1.9854 H   0  0  0  0  0  0  0  0  0  0  0  0
    3.2614    4.6317   -0.7380 H   0  0  0  0  0  0  0  0  0  0  0  0
   -0.3225    4.3802   -2.1192 H   0  0  0  0  0  0  0  0  0  0  0  0
    7.4387    3.0177   -1.1419 H   0  0  0  0  0  0  0  0  0  0  0  0
    4.0089    0.8826   -2.9745 H   0  0  0  0  0  0  0  0  0  0  0  0
    3.1595    1.1185   -6.9533 H   0  0  0  0  0  0  0  0  0  0  0  0
    3.9669    6.3502    0.4311 H   0  0  0  0  0  0  0  0  0  0  0  0
    0.6167    5.9076   -0.0791 H   0  0  0  0  0  0  0  0  0  0  0  0
    0.2559    7.3395   -2.4113 H   0  0  0  0  0  0  0  0  0  0  0  0
   -0.8067    6.3572   -3.4235 H   0  0  0  0  0  0  0  0  0  0  0  0
   -1.1772    6.5840   -1.7063 H   0  0  0  0  0  0  0  0  0  0  0  0
   -0.1307    3.8565    0.3499 H   0  0  0  0  0  0  0  0  0  0  0  0
    7.4843   -0.1354   -4.4884 H   0  0  0  0  0  0  0  0  0  0  0  0
    6.4209    0.1791   -1.9560 H   0  0  0  0  0  0  0  0  0  0  0  0
    2.2549    2.2693    1.5052 H   0  0  0  0  0  0  0  0  0  0  0  0
    0.3387    2.1732   -2.2702 H   0  0  0  0  0  0  0  0  0  0  0  0
    8.2958   -2.9664   -3.6429 H   0  0  0  0  0  0  0  0  0  0  0  0
    6.8115   -2.7020   -5.4662 H   0  0  0  0  0  0  0  0  0  0  0  0
    4.1291   -0.8624   -1.4269 H   0  0  0  0  0  0  0  0  0  0  0  0
    4.9924   -2.3083   -0.8926 H   0  0  0  0  0  0  0  0  0  0  0  0
   -1.1645    1.9524    0.1069 H   0  0  0  0  0  0  0  0  0  0  0  0
   -0.4205   -0.1788   -1.7719 H   0  0  0  0  0  0  0  0  0  0  0  0
    8.8931   -0.3029   -2.2215 H   0  0  0  0  0  0  0  0  0  0  0  0
   10.3509   -2.1440   -3.9686 H   0  0  0  0  0  0  0  0  0  0  0  0
    4.5127   -0.8601    0.7649 H   0  0  0  0  0  0  0  0  0  0  0  0
    2.4622    0.4802    2.9501 H   0  0  0  0  0  0  0  0  0  0  0  0
    0.9924   -0.4919    2.9204 H   0  0  0  0  0  0  0  0  0  0  0  0
    0.9322   -1.2970    0.0838 H   0  0  0  0  0  0  0  0  0  0  0  0
    1.4395    0.2688   -2.8971 H   0  0  0  0  0  0  0  0  0  0  0  0
    9.7203   -1.6905   -0.6687 H   0  0  0  0  0  0  0  0  0  0  0  0
    2.8612   -1.7250    2.8642 H   0  0  0  0  0  0  0  0  0  0  0  0
   -1.0969    0.4623    0.9431 H   0  0  0  0  0  0  0  0  0  0  0  0
  2  1  1  0  0  0  0 
  2  4  1  0  0  0  0 
  5  2  1  0  0  0  0 
  2 45  1  0  0  0  0 
  3  1  1  0  0  0  0 
  6  3  1  0  0  0  0 
  3  7  1  0  0  0  0 
  4  8  1  0  0  0  0 
  4  9  1  0  0  0  0 
  5 10  1  0  0  0  0 
 11  5  1  0  0  0  0 
  6 12  1  0  0  0  0 
 13  6  1  0  0  0  0 
 14  7  1  0  0  0  0 
  8 15  1  0  0  0  0 
 16  9  1  0  0  0  0 
 16 11  1  0  0  0  0 
 11 17  1  0  0  0  0 
 13 18  1  0  0  0  0 
 19 13  1  0  0  0  0 
 19 14  1  0  0  0  0 
 14 20  1  0  0  0  0 
 16 21  1  0  0  0  0 
 19 22  1  0  0  0  0 
 23 21  1  0  0  0  0 
 24 22  1  0  0  0  0 
 25 23  1  0  0  0  0 
 23 26  1  0  0  0  0 
 23 46  1  0  0  0  0 
 24 27  1  0  0  0  0 
 28 24  1  0  0  0  0 
 24 47  1  0  0  0  0 
 29 25  1  0  0  0  0 
 25 30  1  0  0  0  0 
 26 31  1  0  0  0  0 
 26 32  1  0  0  0  0 
 27 33  2  0  0  0  0 
 28 34  1  0  0  0  0 
 28 35  1  0  0  0  0 
 29 36  1  0  0  0  0 
 29 37  1  0  0  0  0 
 31 38  1  0  0  0  0 
 33 39  1  0  0  0  0 
 40 33  1  0  0  0  0 
 35 40  1  0  0  0  0 
 35 41  1  0  0  0  0 
 36 42  1  0  0  0  0 
 39 43  1  0  0  0  0 
 40 44  1  0  0  0  0 
 32 36  1  0  0  0  0 
  3 48  1  0  0  0  0 
  4 49  1  0  0  0  0 
  5 50  1  0  0  0  0 
  6 51  1  0  0  0  0 
  8 52  1  0  0  0  0 
  8 53  1  0  0  0  0 
 10 54  1  0  0  0  0 
 11 55  1  0  0  0  0 
 12 56  1  0  0  0  0 
 13 57  1  0  0  0  0 
 14 58  1  0  0  0  0 
 15 59  1  0  0  0  0 
 16 60  1  0  0  0  0 
 17 61  1  0  0  0  0 
 18 62  1  0  0  0  0 
 19 63  1  0  0  0  0 
 20 64  1  0  0  0  0 
 20 65  1  0  0  0  0 
 20 66  1  0  0  0  0 
 22 67  1  0  0  0  0 
 25 68  1  0  0  0  0 
 26 69  1  0  0  0  0 
 27 70  1  0  0  0  0 
 28 71  1  0  0  0  0 
 29 72  1  0  0  0  0 
 30 73  1  0  0  0  0 
 31 74  1  0  0  0  0 
 31 75  1  0  0  0  0 
 34 76  1  0  0  0  0 
 35 77  1  0  0  0  0 
 36 78  1  0  0  0  0 
 37 79  1  0  0  0  0 
 38 80  1  0  0  0  0 
 39 81  1  0  0  0  0 
 39 82  1  0  0  0  0 
 40 83  1  0  0  0  0 
 41 84  1  0  0  0  0 
 42 85  1  0  0  0  0 
 43 86  1  0  0  0  0 
 44 87  1  0  0  0  0 
M  END
> <cdk:Title>
acarbose

> <Conformer>
10

> <SuperDrugID>
SD000017

$$$$
