artisone acetate
  CDK     0628171801

 61 64  0  0  0  0  0  0  0  0999 V2000
   -1.8576   -3.1565   -2.2802 C   0  0  0  0  0  0  0  0  0  0  0  0
   -0.3647   -2.9864   -1.8004 C   0  0  2  0  0  0  0  0  0  0  0  0
    0.4081   -4.3269   -1.5760 C   0  0  2  0  0  0  0  0  0  0  0  0
   -0.3316   -2.4271   -0.3320 C   0  0  1  0  0  0  0  0  0  0  0  0
    0.4595   -2.1795   -2.8667 C   0  0  2  0  0  0  0  0  0  0  0  0
    0.4953   -5.2131   -2.8590 C   0  0  1  0  0  0  0  0  0  0  0  0
   -0.1939   -4.9294   -0.2893 C   0  0  1  0  0  0  0  0  0  0  0  0
   -1.2423   -1.2776   -0.0309 C   0  0  0  0  0  0  0  0  0  0  0  0
   -0.5494   -3.6911    0.5672 C   0  0  1  0  0  0  0  0  0  0  0  0
    0.6764   -2.9753   -4.1908 C   0  0  2  0  0  0  0  0  0  0  0  0
    1.2374   -4.4335   -4.0021 C   0  0  2  0  0  0  0  0  0  0  0  0
    1.2356   -6.5526   -2.5851 C   0  0  1  0  0  0  0  0  0  0  0  0
   -0.9001    0.1201   -0.3731 C   0  0  2  0  0  0  0  0  0  0  0  0
   -2.3403   -1.4706    0.5436 O   0  0  0  0  0  0  0  0  0  0  0  0
    1.3446   -5.3161   -5.3294 C   0  0  2  0  0  0  0  0  0  0  0  0
    1.6199   -7.2715   -3.7817 C   0  0  0  0  0  0  0  0  0  0  0  0
    0.3131    0.4932    0.2953 O   0  0  0  0  0  0  0  0  0  0  0  0
   -0.0054   -5.2606   -6.1407 C   0  0  0  0  0  0  0  0  0  0  0  0
    1.6677   -6.7503   -5.0300 C   0  0  0  0  0  0  0  0  0  0  0  0
    2.5089   -4.7265   -6.2197 C   0  0  2  0  0  0  0  0  0  0  0  0
    0.4771    1.4376    1.2663 C   0  0  0  0  0  0  0  0  0  0  0  0
    2.0617   -7.6438   -6.1413 C   0  0  1  0  0  0  0  0  0  0  0  0
    2.8693   -5.5870   -7.4575 C   0  0  1  0  0  0  0  0  0  0  0  0
    1.8246    1.6458    1.8138 C   0  0  0  0  0  0  0  0  0  0  0  0
   -0.4907    2.1072    1.6989 O   0  0  0  0  0  0  0  0  0  0  0  0
    3.1767   -7.0439   -7.0362 C   0  0  2  0  0  0  0  0  0  0  0  0
    3.3254   -7.8567   -8.1986 O   0  0  0  0  0  0  0  0  0  0  0  0
   -1.9344   -3.6429   -3.2503 H   0  0  0  0  0  0  0  0  0  0  0  0
   -2.4437   -3.7461   -1.5744 H   0  0  0  0  0  0  0  0  0  0  0  0
   -2.3384   -2.1813   -2.3724 H   0  0  0  0  0  0  0  0  0  0  0  0
    1.4510   -4.0909   -1.3140 H   0  0  0  0  0  0  0  0  0  0  0  0
    0.6864   -2.0751   -0.1214 H   0  0  0  0  0  0  0  0  0  0  0  0
    1.4407   -1.9133   -2.4644 H   0  0  0  0  0  0  0  0  0  0  0  0
   -0.0497   -1.2457   -3.1119 H   0  0  0  0  0  0  0  0  0  0  0  0
   -0.5172   -5.4654   -3.1815 H   0  0  0  0  0  0  0  0  0  0  0  0
   -1.0857   -5.5189   -0.5202 H   0  0  0  0  0  0  0  0  0  0  0  0
    0.5248   -5.5730    0.2265 H   0  0  0  0  0  0  0  0  0  0  0  0
    0.0860   -3.6392    1.4556 H   0  0  0  0  0  0  0  0  0  0  0  0
   -1.5844   -3.7913    0.9038 H   0  0  0  0  0  0  0  0  0  0  0  0
    1.3623   -2.4007   -4.8177 H   0  0  0  0  0  0  0  0  0  0  0  0
   -0.2791   -2.9985   -4.7113 H   0  0  0  0  0  0  0  0  0  0  0  0
    2.2585   -4.2867   -3.6299 H   0  0  0  0  0  0  0  0  0  0  0  0
    2.1429   -6.3753   -2.0002 H   0  0  0  0  0  0  0  0  0  0  0  0
    0.5789   -7.1955   -1.9913 H   0  0  0  0  0  0  0  0  0  0  0  0
   -1.7248    0.7875   -0.1031 H   0  0  0  0  0  0  0  0  0  0  0  0
   -0.7516    0.2188   -1.4471 H   0  0  0  0  0  0  0  0  0  0  0  0
    1.8644   -8.2261   -3.6369 H   0  0  0  0  0  0  0  0  0  0  0  0
   -0.1568   -4.2769   -6.5874 H   0  0  0  0  0  0  0  0  0  0  0  0
   -0.8620   -5.4827   -5.5042 H   0  0  0  0  0  0  0  0  0  0  0  0
   -0.0321   -5.9647   -6.9698 H   0  0  0  0  0  0  0  0  0  0  0  0
    3.4195   -4.6252   -5.6207 H   0  0  0  0  0  0  0  0  0  0  0  0
    2.2514   -3.7259   -6.5749 H   0  0  0  0  0  0  0  0  0  0  0  0
    2.4226   -8.6183   -5.7933 H   0  0  0  0  0  0  0  0  0  0  0  0
    1.1831   -7.8580   -6.7523 H   0  0  0  0  0  0  0  0  0  0  0  0
    2.0467   -5.5705   -8.1749 H   0  0  0  0  0  0  0  0  0  0  0  0
    3.7457   -5.1598   -7.9510 H   0  0  0  0  0  0  0  0  0  0  0  0
    1.7383    2.3395    2.7033 H   0  0  0  0  0  0  0  0  0  0  0  0
    2.1406    0.6534    2.2525 H   0  0  0  0  0  0  0  0  0  0  0  0
    2.4706    2.0402    0.9207 H   0  0  0  0  0  0  0  0  0  0  0  0
    4.1234   -7.0654   -6.4873 H   0  0  0  0  0  0  0  0  0  0  0  0
    4.0404   -7.4328   -8.7162 H   0  0  0  0  0  0  0  0  0  0  0  0
  2  1  1  0  0  0  0 
  2  3  1  0  0  0  0 
  2  4  1  0  0  0  0 
  2  5  1  0  0  0  0 
  3  6  1  0  0  0  0 
  3  7  1  0  0  0  0 
  4  8  1  0  0  0  0 
  4  9  1  0  0  0  0 
  5 10  1  0  0  0  0 
  6 11  1  0  0  0  0 
  6 12  1  0  0  0  0 
  7  9  1  0  0  0  0 
  8 13  1  0  0  0  0 
  8 14  2  0  0  0  0 
 11 10  1  0  0  0  0 
 11 15  1  0  0  0  0 
 12 16  1  0  0  0  0 
 13 17  1  0  0  0  0 
 15 18  1  0  0  0  0 
 15 19  1  0  0  0  0 
 15 20  1  0  0  0  0 
 16 19  2  0  0  0  0 
 17 21  1  0  0  0  0 
 19 22  1  0  0  0  0 
 20 23  1  0  0  0  0 
 21 24  1  0  0  0  0 
 21 25  2  0  0  0  0 
 26 22  1  0  0  0  0 
 26 23  1  0  0  0  0 
 26 27  1  0  0  0  0 
 28  1  1  0  0  0  0 
 29  1  1  0  0  0  0 
 30  1  1  0  0  0  0 
  3 31  1  0  0  0  0 
  4 32  1  0  0  0  0 
 33  5  1  0  0  0  0 
 34  5  1  0  0  0  0 
  6 35  1  0  0  0  0 
 36  7  1  0  0  0  0 
 37  7  1  0  0  0  0 
 38  9  1  0  0  0  0 
 39  9  1  0  0  0  0 
 40 10  1  0  0  0  0 
 41 10  1  0  0  0  0 
 11 42  1  0  0  0  0 
 43 12  1  0  0  0  0 
 44 12  1  0  0  0  0 
 45 13  1  0  0  0  0 
 46 13  1  0  0  0  0 
 47 16  1  0  0  0  0 
 48 18  1  0  0  0  0 
 49 18  1  0  0  0  0 
 50 18  1  0  0  0  0 
 51 20  1  0  0  0  0 
 52 20  1  0  0  0  0 
 53 22  1  0  0  0  0 
 54 22  1  0  0  0  0 
 55 23  1  0  0  0  0 
 56 23  1  0  0  0  0 
 57 24  1  0  0  0  0 
 58 24  1  0  0  0  0 
 59 24  1  0  0  0  0 
 26 60  1  0  0  0  0 
 61 27  1  0  0  0  0 
M  END
> <cdk:Title>
artisone acetate

> <Conformer>
1

> <SuperDrugID>
SD000012

$$$$
artisone acetate
  CDK     0628171801

 61 64  0  0  0  0  0  0  0  0999 V2000
    1.7139   -1.5752   -2.3577 C   0  0  0  0  0  0  0  0  0  0  0  0
    0.3027   -2.2612   -2.4996 C   0  0  2  0  0  0  0  0  0  0  0  0
    0.0767   -3.0254   -3.8490 C   0  0  2  0  0  0  0  0  0  0  0  0
   -0.8135   -1.1530   -2.6140 C   0  0  1  0  0  0  0  0  0  0  0  0
    0.1173   -3.3458   -1.3763 C   0  0  2  0  0  0  0  0  0  0  0  0
    1.1349   -4.1434   -4.1208 C   0  0  1  0  0  0  0  0  0  0  0  0
   -0.1207   -1.9252   -4.9108 C   0  0  1  0  0  0  0  0  0  0  0  0
   -0.7734    0.0296   -1.6859 C   0  0  0  0  0  0  0  0  0  0  0  0
   -0.7677   -0.7584   -4.1301 C   0  0  1  0  0  0  0  0  0  0  0  0
    1.0510   -4.5881   -1.5460 C   0  0  2  0  0  0  0  0  0  0  0  0
    1.0820   -5.2274   -2.9880 C   0  0  2  0  0  0  0  0  0  0  0  0
    0.9187   -4.8362   -5.4969 C   0  0  1  0  0  0  0  0  0  0  0  0
   -0.8412   -0.0544   -0.2121 C   0  0  2  0  0  0  0  0  0  0  0  0
   -0.7296    1.1984   -2.1390 O   0  0  0  0  0  0  0  0  0  0  0  0
    2.1785   -6.3650   -3.2463 C   0  0  2  0  0  0  0  0  0  0  0  0
    1.7079   -6.0368   -5.6826 C   0  0  0  0  0  0  0  0  0  0  0  0
    0.3536    0.5250    0.3436 O   0  0  0  0  0  0  0  0  0  0  0  0
    3.5947   -5.8900   -2.7445 C   0  0  0  0  0  0  0  0  0  0  0  0
    2.2908   -6.7505   -4.6938 C   0  0  0  0  0  0  0  0  0  0  0  0
    1.7363   -7.6538   -2.4528 C   0  0  2  0  0  0  0  0  0  0  0  0
    0.4513    1.5899    1.1991 C   0  0  0  0  0  0  0  0  0  0  0  0
    3.0679   -7.9546   -5.0671 C   0  0  1  0  0  0  0  0  0  0  0  0
    2.6307   -8.8962   -2.7001 C   0  0  1  0  0  0  0  0  0  0  0  0
    1.7714    2.1106    1.5926 C   0  0  0  0  0  0  0  0  0  0  0  0
   -0.5702    2.1478    1.6607 O   0  0  0  0  0  0  0  0  0  0  0  0
    2.7261   -9.2068   -4.2148 C   0  0  2  0  0  0  0  0  0  0  0  0
    3.7172  -10.2119   -4.4290 O   0  0  0  0  0  0  0  0  0  0  0  0
    2.5316   -2.2931   -2.3557 H   0  0  0  0  0  0  0  0  0  0  0  0
    1.9057   -0.8753   -3.1712 H   0  0  0  0  0  0  0  0  0  0  0  0
    1.7728   -1.0207   -1.4202 H   0  0  0  0  0  0  0  0  0  0  0  0
   -0.8927   -3.5432   -3.7985 H   0  0  0  0  0  0  0  0  0  0  0  0
   -1.7840   -1.6291   -2.4305 H   0  0  0  0  0  0  0  0  0  0  0  0
   -0.9186   -3.6908   -1.3626 H   0  0  0  0  0  0  0  0  0  0  0  0
    0.3154   -2.9126   -0.3955 H   0  0  0  0  0  0  0  0  0  0  0  0
    2.1252   -3.6846   -4.1494 H   0  0  0  0  0  0  0  0  0  0  0  0
    0.8418   -1.6275   -5.3409 H   0  0  0  0  0  0  0  0  0  0  0  0
   -0.7742   -2.2651   -5.7204 H   0  0  0  0  0  0  0  0  0  0  0  0
   -1.7761   -0.5485   -4.4973 H   0  0  0  0  0  0  0  0  0  0  0  0
   -0.1515    0.1275   -4.3031 H   0  0  0  0  0  0  0  0  0  0  0  0
    0.7366   -5.3466   -0.8243 H   0  0  0  0  0  0  0  0  0  0  0  0
    2.0475   -4.2737   -1.2472 H   0  0  0  0  0  0  0  0  0  0  0  0
    0.0963   -5.6979   -3.0926 H   0  0  0  0  0  0  0  0  0  0  0  0
   -0.1319   -5.1114   -5.6244 H   0  0  0  0  0  0  0  0  0  0  0  0
    1.1755   -4.1269   -6.2883 H   0  0  0  0  0  0  0  0  0  0  0  0
   -0.9302   -1.0834    0.1259 H   0  0  0  0  0  0  0  0  0  0  0  0
   -1.7376    0.4749    0.1226 H   0  0  0  0  0  0  0  0  0  0  0  0
    1.8029   -6.3399   -6.6269 H   0  0  0  0  0  0  0  0  0  0  0  0
    3.6329   -5.8455   -1.6559 H   0  0  0  0  0  0  0  0  0  0  0  0
    3.8482   -4.9041   -3.1333 H   0  0  0  0  0  0  0  0  0  0  0  0
    4.3959   -6.5638   -3.0411 H   0  0  0  0  0  0  0  0  0  0  0  0
    0.7136   -7.9259   -2.7380 H   0  0  0  0  0  0  0  0  0  0  0  0
    1.7254   -7.4565   -1.3785 H   0  0  0  0  0  0  0  0  0  0  0  0
    2.9272   -8.2381   -6.1157 H   0  0  0  0  0  0  0  0  0  0  0  0
    4.1287   -7.7277   -4.9639 H   0  0  0  0  0  0  0  0  0  0  0  0
    3.6285   -8.7216   -2.2910 H   0  0  0  0  0  0  0  0  0  0  0  0
    2.2036   -9.7594   -2.1797 H   0  0  0  0  0  0  0  0  0  0  0  0
    1.8633    1.9334    2.7051 H   0  0  0  0  0  0  0  0  0  0  0  0
    2.5562    1.4413    1.1304 H   0  0  0  0  0  0  0  0  0  0  0  0
    1.7929    3.2320    1.2478 H   0  0  0  0  0  0  0  0  0  0  0  0
    1.7680   -9.6146   -4.5511 H   0  0  0  0  0  0  0  0  0  0  0  0
    3.4525  -10.9623   -3.8560 H   0  0  0  0  0  0  0  0  0  0  0  0
  2  1  1  0  0  0  0 
  2  3  1  0  0  0  0 
  2  4  1  0  0  0  0 
  2  5  1  0  0  0  0 
  3  6  1  0  0  0  0 
  3  7  1  0  0  0  0 
  4  8  1  0  0  0  0 
  4  9  1  0  0  0  0 
  5 10  1  0  0  0  0 
  6 11  1  0  0  0  0 
  6 12  1  0  0  0  0 
  7  9  1  0  0  0  0 
  8 13  1  0  0  0  0 
  8 14  2  0  0  0  0 
 11 10  1  0  0  0  0 
 11 15  1  0  0  0  0 
 12 16  1  0  0  0  0 
 13 17  1  0  0  0  0 
 15 18  1  0  0  0  0 
 15 19  1  0  0  0  0 
 15 20  1  0  0  0  0 
 16 19  2  0  0  0  0 
 17 21  1  0  0  0  0 
 19 22  1  0  0  0  0 
 20 23  1  0  0  0  0 
 21 24  1  0  0  0  0 
 21 25  2  0  0  0  0 
 26 22  1  0  0  0  0 
 26 23  1  0  0  0  0 
 26 27  1  0  0  0  0 
 28  1  1  0  0  0  0 
 29  1  1  0  0  0  0 
 30  1  1  0  0  0  0 
  3 31  1  0  0  0  0 
  4 32  1  0  0  0  0 
 33  5  1  0  0  0  0 
 34  5  1  0  0  0  0 
  6 35  1  0  0  0  0 
 36  7  1  0  0  0  0 
 37  7  1  0  0  0  0 
 38  9  1  0  0  0  0 
 39  9  1  0  0  0  0 
 40 10  1  0  0  0  0 
 41 10  1  0  0  0  0 
 11 42  1  0  0  0  0 
 43 12  1  0  0  0  0 
 44 12  1  0  0  0  0 
 45 13  1  0  0  0  0 
 46 13  1  0  0  0  0 
 47 16  1  0  0  0  0 
 48 18  1  0  0  0  0 
 49 18  1  0  0  0  0 
 50 18  1  0  0  0  0 
 51 20  1  0  0  0  0 
 52 20  1  0  0  0  0 
 53 22  1  0  0  0  0 
 54 22  1  0  0  0  0 
 55 23  1  0  0  0  0 
 56 23  1  0  0  0  0 
 57 24  1  0  0  0  0 
 58 24  1  0  0  0  0 
 59 24  1  0  0  0  0 
 26 60  1  0  0  0  0 
 61 27  1  0  0  0  0 
M  END
> <cdk:Title>
artisone acetate

> <Conformer>
2

> <SuperDrugID>
SD000012

$$$$
artisone acetate
  CDK     0628171801

 61 64  0  0  0  0  0  0  0  0999 V2000
    1.6590   -1.5396   -2.4167 C   0  0  0  0  0  0  0  0  0  0  0  0
    0.2020   -2.0648   -2.6985 C   0  0  2  0  0  0  0  0  0  0  0  0
    0.0067   -2.7096   -4.1121 C   0  0  2  0  0  0  0  0  0  0  0  0
   -0.7971   -0.8456   -2.8225 C   0  0  1  0  0  0  0  0  0  0  0  0
   -0.1648   -3.2028   -1.6735 C   0  0  2  0  0  0  0  0  0  0  0  0
    0.9726   -3.9044   -4.3996 C   0  0  1  0  0  0  0  0  0  0  0  0
   -0.0088   -1.5387   -5.1095 C   0  0  1  0  0  0  0  0  0  0  0  0
   -0.7300    0.2711   -1.8171 C   0  0  0  0  0  0  0  0  0  0  0  0
   -0.6128   -0.3675   -4.3055 C   0  0  1  0  0  0  0  0  0  0  0  0
    0.6576   -4.5163   -1.8873 C   0  0  2  0  0  0  0  0  0  0  0  0
    0.7059   -5.0558   -3.3694 C   0  0  2  0  0  0  0  0  0  0  0  0
    0.8084   -4.4596   -5.8406 C   0  0  1  0  0  0  0  0  0  0  0  0
   -0.8994    0.0911   -0.3600 C   0  0  2  0  0  0  0  0  0  0  0  0
   -0.5602    1.4585   -2.1851 O   0  0  0  0  0  0  0  0  0  0  0  0
    1.6512   -6.3190   -3.6461 C   0  0  2  0  0  0  0  0  0  0  0  0
    1.5195   -5.6991   -6.0706 C   0  0  0  0  0  0  0  0  0  0  0  0
    0.3133    0.5003    0.2919 O   0  0  0  0  0  0  0  0  0  0  0  0
    3.0466   -6.1123   -2.9419 C   0  0  0  0  0  0  0  0  0  0  0  0
    1.8972   -6.5679   -5.1062 C   0  0  0  0  0  0  0  0  0  0  0  0
    0.9307   -7.6041   -3.0750 C   0  0  2  0  0  0  0  0  0  0  0  0
    0.4759    1.4404    1.2679 C   0  0  0  0  0  0  0  0  0  0  0  0
    2.5755   -7.8202   -5.5149 C   0  0  1  0  0  0  0  0  0  0  0  0
    1.6791   -8.9309   -3.3602 C   0  0  1  0  0  0  0  0  0  0  0  0
    1.8406    1.7339    1.7339 C   0  0  0  0  0  0  0  0  0  0  0  0
   -0.5065    2.0381    1.7674 O   0  0  0  0  0  0  0  0  0  0  0  0
    1.9400   -9.0888   -4.8794 C   0  0  2  0  0  0  0  0  0  0  0  0
    2.7913  -10.2123   -5.1010 O   0  0  0  0  0  0  0  0  0  0  0  0
    2.3947   -2.3389   -2.4244 H   0  0  0  0  0  0  0  0  0  0  0  0
    1.9734   -0.8056   -3.1580 H   0  0  0  0  0  0  0  0  0  0  0  0
    1.7156   -1.0712   -1.4348 H   0  0  0  0  0  0  0  0  0  0  0  0
   -1.0111   -3.1262   -4.1635 H   0  0  0  0  0  0  0  0  0  0  0  0
   -1.8204   -1.2323   -2.7394 H   0  0  0  0  0  0  0  0  0  0  0  0
   -1.2282   -3.4441   -1.7481 H   0  0  0  0  0  0  0  0  0  0  0  0
    0.0122   -2.8645   -0.6512 H   0  0  0  0  0  0  0  0  0  0  0  0
    2.0044   -3.5594   -4.3125 H   0  0  0  0  0  0  0  0  0  0  0  0
    1.0024   -1.3030   -5.4511 H   0  0  0  0  0  0  0  0  0  0  0  0
   -0.6242   -1.7782   -5.9816 H   0  0  0  0  0  0  0  0  0  0  0  0
   -1.5720   -0.0624   -4.7343 H   0  0  0  0  0  0  0  0  0  0  0  0
    0.0745    0.4804   -4.3807 H   0  0  0  0  0  0  0  0  0  0  0  0
    0.2370   -5.2880   -1.2372 H   0  0  0  0  0  0  0  0  0  0  0  0
    1.6628   -4.3190   -1.5196 H   0  0  0  0  0  0  0  0  0  0  0  0
   -0.3224   -5.3795   -3.5683 H   0  0  0  0  0  0  0  0  0  0  0  0
   -0.2478   -4.6414   -6.0581 H   0  0  0  0  0  0  0  0  0  0  0  0
    1.1710   -3.7111   -6.5519 H   0  0  0  0  0  0  0  0  0  0  0  0
   -1.0885   -0.9461   -0.0976 H   0  0  0  0  0  0  0  0  0  0  0  0
   -1.7660    0.6684   -0.0247 H   0  0  0  0  0  0  0  0  0  0  0  0
    1.7195   -5.9053   -7.0229 H   0  0  0  0  0  0  0  0  0  0  0  0
    2.9494   -6.1411   -1.8566 H   0  0  0  0  0  0  0  0  0  0  0  0
    3.4870   -5.1561   -3.2301 H   0  0  0  0  0  0  0  0  0  0  0  0
    3.7726   -6.8858   -3.1836 H   0  0  0  0  0  0  0  0  0  0  0  0
   -0.0650   -7.6971   -3.5248 H   0  0  0  0  0  0  0  0  0  0  0  0
    0.7869   -7.5201   -1.9955 H   0  0  0  0  0  0  0  0  0  0  0  0
    2.5669   -7.9674   -6.5995 H   0  0  0  0  0  0  0  0  0  0  0  0
    3.6301   -7.7619   -5.2387 H   0  0  0  0  0  0  0  0  0  0  0  0
    2.6220   -8.9544   -2.8088 H   0  0  0  0  0  0  0  0  0  0  0  0
    1.0736   -9.7718   -3.0108 H   0  0  0  0  0  0  0  0  0  0  0  0
    2.3930    2.1584    0.8426 H   0  0  0  0  0  0  0  0  0  0  0  0
    1.7828    2.5918    2.4695 H   0  0  0  0  0  0  0  0  0  0  0  0
    2.2534    0.7239    2.1607 H   0  0  0  0  0  0  0  0  0  0  0  0
    0.9881   -9.2925   -5.3809 H   0  0  0  0  0  0  0  0  0  0  0  0
    2.3204  -10.9713   -4.6974 H   0  0  0  0  0  0  0  0  0  0  0  0
  2  1  1  0  0  0  0 
  2  3  1  0  0  0  0 
  2  4  1  0  0  0  0 
  2  5  1  0  0  0  0 
  3  6  1  0  0  0  0 
  3  7  1  0  0  0  0 
  4  8  1  0  0  0  0 
  4  9  1  0  0  0  0 
  5 10  1  0  0  0  0 
  6 11  1  0  0  0  0 
  6 12  1  0  0  0  0 
  7  9  1  0  0  0  0 
  8 13  1  0  0  0  0 
  8 14  2  0  0  0  0 
 11 10  1  0  0  0  0 
 11 15  1  0  0  0  0 
 12 16  1  0  0  0  0 
 13 17  1  0  0  0  0 
 15 18  1  0  0  0  0 
 15 19  1  0  0  0  0 
 15 20  1  0  0  0  0 
 16 19  2  0  0  0  0 
 17 21  1  0  0  0  0 
 19 22  1  0  0  0  0 
 20 23  1  0  0  0  0 
 21 24  1  0  0  0  0 
 21 25  2  0  0  0  0 
 26 22  1  0  0  0  0 
 26 23  1  0  0  0  0 
 26 27  1  0  0  0  0 
 28  1  1  0  0  0  0 
 29  1  1  0  0  0  0 
 30  1  1  0  0  0  0 
  3 31  1  0  0  0  0 
  4 32  1  0  0  0  0 
 33  5  1  0  0  0  0 
 34  5  1  0  0  0  0 
  6 35  1  0  0  0  0 
 36  7  1  0  0  0  0 
 37  7  1  0  0  0  0 
 38  9  1  0  0  0  0 
 39  9  1  0  0  0  0 
 40 10  1  0  0  0  0 
 41 10  1  0  0  0  0 
 11 42  1  0  0  0  0 
 43 12  1  0  0  0  0 
 44 12  1  0  0  0  0 
 45 13  1  0  0  0  0 
 46 13  1  0  0  0  0 
 47 16  1  0  0  0  0 
 48 18  1  0  0  0  0 
 49 18  1  0  0  0  0 
 50 18  1  0  0  0  0 
 51 20  1  0  0  0  0 
 52 20  1  0  0  0  0 
 53 22  1  0  0  0  0 
 54 22  1  0  0  0  0 
 55 23  1  0  0  0  0 
 56 23  1  0  0  0  0 
 57 24  1  0  0  0  0 
 58 24  1  0  0  0  0 
 59 24  1  0  0  0  0 
 26 60  1  0  0  0  0 
 61 27  1  0  0  0  0 
M  END
> <cdk:Title>
artisone acetate

> <Conformer>
3

> <SuperDrugID>
SD000012

$$$$
artisone acetate
  CDK     0628171801

 61 64  0  0  0  0  0  0  0  0999 V2000
    1.1002   -1.6703   -2.2166 C   0  0  0  0  0  0  0  0  0  0  0  0
    0.9322   -2.6070   -0.9598 C   0  0  2  0  0  0  0  0  0  0  0  0
    0.9686   -4.1379   -1.3055 C   0  0  2  0  0  0  0  0  0  0  0  0
   -0.5268   -2.5371   -0.3559 C   0  0  1  0  0  0  0  0  0  0  0  0
    2.1122   -2.3762    0.0451 C   0  0  2  0  0  0  0  0  0  0  0  0
    2.3003   -4.6555   -1.9477 C   0  0  1  0  0  0  0  0  0  0  0  0
   -0.3590   -4.3816   -2.0490 C   0  0  1  0  0  0  0  0  0  0  0  0
   -1.2699   -1.2721   -0.0458 C   0  0  0  0  0  0  0  0  0  0  0  0
   -1.3597   -3.4663   -1.2993 C   0  0  1  0  0  0  0  0  0  0  0  0
    3.4879   -2.8184   -0.5386 C   0  0  2  0  0  0  0  0  0  0  0  0
    3.5192   -4.3151   -1.0172 C   0  0  2  0  0  0  0  0  0  0  0  0
    2.2657   -6.1956   -2.1715 C   0  0  1  0  0  0  0  0  0  0  0  0
   -0.9007    0.1201   -0.3808 C   0  0  2  0  0  0  0  0  0  0  0  0
   -2.3575   -1.4117    0.5642 O   0  0  0  0  0  0  0  0  0  0  0  0
    4.8939   -4.8331   -1.6447 C   0  0  2  0  0  0  0  0  0  0  0  0
    3.5546   -6.7824   -2.4735 C   0  0  0  0  0  0  0  0  0  0  0  0
    0.3070    0.4835    0.2954 O   0  0  0  0  0  0  0  0  0  0  0  0
    5.4050   -3.8323   -2.7463 C   0  0  0  0  0  0  0  0  0  0  0  0
    4.7534   -6.1969   -2.2529 C   0  0  0  0  0  0  0  0  0  0  0  0
    5.9679   -4.9239   -0.4889 C   0  0  2  0  0  0  0  0  0  0  0  0
    0.4789    1.4336    1.2616 C   0  0  0  0  0  0  0  0  0  0  0  0
    5.9707   -6.9444   -2.6347 C   0  0  1  0  0  0  0  0  0  0  0  0
    7.3010   -5.6013   -0.8999 C   0  0  1  0  0  0  0  0  0  0  0  0
    1.8171    1.6546    1.8226 C   0  0  0  0  0  0  0  0  0  0  0  0
   -0.4784    2.1121    1.7022 O   0  0  0  0  0  0  0  0  0  0  0  0
    7.0342   -6.9998   -1.5080 C   0  0  2  0  0  0  0  0  0  0  0  0
    8.2414   -7.5477   -2.0392 O   0  0  0  0  0  0  0  0  0  0  0  0
    1.8863   -2.0058   -2.8887 H   0  0  0  0  0  0  0  0  0  0  0  0
    0.1810   -1.6152   -2.8015 H   0  0  0  0  0  0  0  0  0  0  0  0
    1.3723   -0.6580   -1.9163 H   0  0  0  0  0  0  0  0  0  0  0  0
    0.8782   -4.7064   -0.3670 H   0  0  0  0  0  0  0  0  0  0  0  0
   -0.4756   -3.0381    0.6194 H   0  0  0  0  0  0  0  0  0  0  0  0
    1.9367   -2.9379    0.9661 H   0  0  0  0  0  0  0  0  0  0  0  0
    2.1711   -1.3240    0.3181 H   0  0  0  0  0  0  0  0  0  0  0  0
    2.4315   -4.1878   -2.9252 H   0  0  0  0  0  0  0  0  0  0  0  0
   -0.2661   -4.0911   -3.1011 H   0  0  0  0  0  0  0  0  0  0  0  0
   -0.6636   -5.4319   -1.9933 H   0  0  0  0  0  0  0  0  0  0  0  0
   -2.0593   -4.0717   -0.7139 H   0  0  0  0  0  0  0  0  0  0  0  0
   -1.9363   -2.8901   -2.0300 H   0  0  0  0  0  0  0  0  0  0  0  0
    4.2391   -2.6709    0.2388 H   0  0  0  0  0  0  0  0  0  0  0  0
    3.7394   -2.1491   -1.3615 H   0  0  0  0  0  0  0  0  0  0  0  0
    3.3535   -4.9009   -0.1036 H   0  0  0  0  0  0  0  0  0  0  0  0
    1.8873   -6.6996   -1.2769 H   0  0  0  0  0  0  0  0  0  0  0  0
    1.5767   -6.4195   -2.9914 H   0  0  0  0  0  0  0  0  0  0  0  0
   -1.7117    0.8016   -0.1030 H   0  0  0  0  0  0  0  0  0  0  0  0
   -0.7721    0.2284   -1.4566 H   0  0  0  0  0  0  0  0  0  0  0  0
    3.5195   -7.6972   -2.8644 H   0  0  0  0  0  0  0  0  0  0  0  0
    5.7153   -2.8856   -2.3019 H   0  0  0  0  0  0  0  0  0  0  0  0
    4.6305   -3.6257   -3.4841 H   0  0  0  0  0  0  0  0  0  0  0  0
    6.2708   -4.2069   -3.2885 H   0  0  0  0  0  0  0  0  0  0  0  0
    5.5608   -5.4980    0.3493 H   0  0  0  0  0  0  0  0  0  0  0  0
    6.2098   -3.9302   -0.1044 H   0  0  0  0  0  0  0  0  0  0  0  0
    5.7586   -7.9807   -2.9190 H   0  0  0  0  0  0  0  0  0  0  0  0
    6.4057   -6.4740   -3.5187 H   0  0  0  0  0  0  0  0  0  0  0  0
    7.8305   -4.9743   -1.6212 H   0  0  0  0  0  0  0  0  0  0  0  0
    7.9418   -5.7058   -0.0194 H   0  0  0  0  0  0  0  0  0  0  0  0
    2.5537    1.0690    1.1955 H   0  0  0  0  0  0  0  0  0  0  0  0
    2.0743    2.7370    1.6270 H   0  0  0  0  0  0  0  0  0  0  0  0
    1.7346    1.3382    2.9463 H   0  0  0  0  0  0  0  0  0  0  0  0
    6.6813   -7.6707   -0.7179 H   0  0  0  0  0  0  0  0  0  0  0  0
    8.8732   -7.5719   -1.2901 H   0  0  0  0  0  0  0  0  0  0  0  0
  2  1  1  0  0  0  0 
  2  3  1  0  0  0  0 
  2  4  1  0  0  0  0 
  2  5  1  0  0  0  0 
  3  6  1  0  0  0  0 
  3  7  1  0  0  0  0 
  4  8  1  0  0  0  0 
  4  9  1  0  0  0  0 
  5 10  1  0  0  0  0 
  6 11  1  0  0  0  0 
  6 12  1  0  0  0  0 
  7  9  1  0  0  0  0 
  8 13  1  0  0  0  0 
  8 14  2  0  0  0  0 
 11 10  1  0  0  0  0 
 11 15  1  0  0  0  0 
 12 16  1  0  0  0  0 
 13 17  1  0  0  0  0 
 15 18  1  0  0  0  0 
 15 19  1  0  0  0  0 
 15 20  1  0  0  0  0 
 16 19  2  0  0  0  0 
 17 21  1  0  0  0  0 
 19 22  1  0  0  0  0 
 20 23  1  0  0  0  0 
 21 24  1  0  0  0  0 
 21 25  2  0  0  0  0 
 26 22  1  0  0  0  0 
 26 23  1  0  0  0  0 
 26 27  1  0  0  0  0 
 28  1  1  0  0  0  0 
 29  1  1  0  0  0  0 
 30  1  1  0  0  0  0 
  3 31  1  0  0  0  0 
  4 32  1  0  0  0  0 
 33  5  1  0  0  0  0 
 34  5  1  0  0  0  0 
  6 35  1  0  0  0  0 
 36  7  1  0  0  0  0 
 37  7  1  0  0  0  0 
 38  9  1  0  0  0  0 
 39  9  1  0  0  0  0 
 40 10  1  0  0  0  0 
 41 10  1  0  0  0  0 
 11 42  1  0  0  0  0 
 43 12  1  0  0  0  0 
 44 12  1  0  0  0  0 
 45 13  1  0  0  0  0 
 46 13  1  0  0  0  0 
 47 16  1  0  0  0  0 
 48 18  1  0  0  0  0 
 49 18  1  0  0  0  0 
 50 18  1  0  0  0  0 
 51 20  1  0  0  0  0 
 52 20  1  0  0  0  0 
 53 22  1  0  0  0  0 
 54 22  1  0  0  0  0 
 55 23  1  0  0  0  0 
 56 23  1  0  0  0  0 
 57 24  1  0  0  0  0 
 58 24  1  0  0  0  0 
 59 24  1  0  0  0  0 
 26 60  1  0  0  0  0 
 61 27  1  0  0  0  0 
M  END
> <cdk:Title>
artisone acetate

> <Conformer>
4

> <SuperDrugID>
SD000012

$$$$
artisone acetate
  CDK     0628171801

 61 64  0  0  0  0  0  0  0  0999 V2000
    1.1413   -1.5494   -2.3928 C   0  0  0  0  0  0  0  0  0  0  0  0
    1.3196   -2.3483   -1.0455 C   0  0  2  0  0  0  0  0  0  0  0  0
    1.6613   -3.8708   -1.2351 C   0  0  2  0  0  0  0  0  0  0  0  0
   -0.0529   -2.5002   -0.2721 C   0  0  1  0  0  0  0  0  0  0  0  0
    2.5253   -1.7557   -0.2329 C   0  0  2  0  0  0  0  0  0  0  0  0
    2.9906   -4.1657   -2.0123 C   0  0  1  0  0  0  0  0  0  0  0  0
    0.3450   -4.4872   -1.7505 C   0  0  1  0  0  0  0  0  0  0  0  0
   -1.0260   -1.3855   -0.0134 C   0  0  0  0  0  0  0  0  0  0  0  0
   -0.7547   -3.6813   -1.0180 C   0  0  1  0  0  0  0  0  0  0  0  0
    3.8917   -1.9542   -0.9562 C   0  0  2  0  0  0  0  0  0  0  0  0
    4.2065   -3.4524   -1.3173 C   0  0  2  0  0  0  0  0  0  0  0  0
    3.2962   -5.6895   -2.0958 C   0  0  1  0  0  0  0  0  0  0  0  0
   -0.8847    0.0491   -0.3425 C   0  0  2  0  0  0  0  0  0  0  0  0
   -2.0710   -1.6977    0.6084 O   0  0  0  0  0  0  0  0  0  0  0  0
    5.5634   -3.7234   -2.1205 C   0  0  2  0  0  0  0  0  0  0  0  0
    4.6245   -5.9978   -2.5876 C   0  0  0  0  0  0  0  0  0  0  0  0
    0.3084    0.5466    0.2618 O   0  0  0  0  0  0  0  0  0  0  0  0
    5.6698   -2.7500   -3.3532 C   0  0  0  0  0  0  0  0  0  0  0  0
    5.6678   -5.1366   -2.6138 C   0  0  0  0  0  0  0  0  0  0  0  0
    6.7811   -3.4643   -1.1496 C   0  0  2  0  0  0  0  0  0  0  0  0
    0.4684    1.4572    1.2633 C   0  0  0  0  0  0  0  0  0  0  0  0
    6.9627   -5.6222   -3.1457 C   0  0  1  0  0  0  0  0  0  0  0  0
    8.1684   -3.8592   -1.7225 C   0  0  1  0  0  0  0  0  0  0  0  0
    1.8405    1.7093    1.7320 C   0  0  0  0  0  0  0  0  0  0  0  0
   -0.5088    2.0418    1.7865 O   0  0  0  0  0  0  0  0  0  0  0  0
    8.1560   -5.3320   -2.1966 C   0  0  2  0  0  0  0  0  0  0  0  0
    9.3809   -5.6249   -2.8665 O   0  0  0  0  0  0  0  0  0  0  0  0
    1.9027   -1.7967   -3.1276 H   0  0  0  0  0  0  0  0  0  0  0  0
    0.1720   -1.7386   -2.8561 H   0  0  0  0  0  0  0  0  0  0  0  0
    1.2277   -0.4775   -2.2159 H   0  0  0  0  0  0  0  0  0  0  0  0
    1.8182   -4.3171   -0.2397 H   0  0  0  0  0  0  0  0  0  0  0  0
    0.1946   -2.8576    0.7361 H   0  0  0  0  0  0  0  0  0  0  0  0
    2.5800   -2.2196    0.7555 H   0  0  0  0  0  0  0  0  0  0  0  0
    2.3912   -0.6893   -0.0724 H   0  0  0  0  0  0  0  0  0  0  0  0
    2.8856   -3.8069   -3.0377 H   0  0  0  0  0  0  0  0  0  0  0  0
    0.2627   -4.3626   -2.8337 H   0  0  0  0  0  0  0  0  0  0  0  0
    0.2822   -5.5524   -1.5118 H   0  0  0  0  0  0  0  0  0  0  0  0
   -1.2876   -4.3166   -0.3046 H   0  0  0  0  0  0  0  0  0  0  0  0
   -1.4790   -3.3146   -1.7525 H   0  0  0  0  0  0  0  0  0  0  0  0
    4.6715   -1.5618   -0.2995 H   0  0  0  0  0  0  0  0  0  0  0  0
    3.8872   -1.3331   -1.8524 H   0  0  0  0  0  0  0  0  0  0  0  0
    4.3114   -3.9434   -0.3415 H   0  0  0  0  0  0  0  0  0  0  0  0
    3.1976   -6.1509   -1.1088 H   0  0  0  0  0  0  0  0  0  0  0  0
    2.5621   -6.1598   -2.7546 H   0  0  0  0  0  0  0  0  0  0  0  0
   -1.7522    0.6146    0.0098 H   0  0  0  0  0  0  0  0  0  0  0  0
   -0.8419    0.1886   -1.4205 H   0  0  0  0  0  0  0  0  0  0  0  0
    4.7507   -6.9284   -2.9149 H   0  0  0  0  0  0  0  0  0  0  0  0
    5.8129   -1.7182   -3.0307 H   0  0  0  0  0  0  0  0  0  0  0  0
    4.7734   -2.7904   -3.9707 H   0  0  0  0  0  0  0  0  0  0  0  0
    6.5145   -2.9786   -4.0000 H   0  0  0  0  0  0  0  0  0  0  0  0
    6.6404   -4.0404   -0.2298 H   0  0  0  0  0  0  0  0  0  0  0  0
    6.8240   -2.4118   -0.8609 H   0  0  0  0  0  0  0  0  0  0  0  0
    6.9631   -6.7006   -3.3352 H   0  0  0  0  0  0  0  0  0  0  0  0
    7.1547   -5.1526   -4.1125 H   0  0  0  0  0  0  0  0  0  0  0  0
    8.4362   -3.2023   -2.5550 H   0  0  0  0  0  0  0  0  0  0  0  0
    8.9269   -3.7350   -0.9436 H   0  0  0  0  0  0  0  0  0  0  0  0
    1.8043    2.4483    2.5880 H   0  0  0  0  0  0  0  0  0  0  0  0
    2.1824    0.7411    2.2066 H   0  0  0  0  0  0  0  0  0  0  0  0
    2.4363    2.0536    0.7846 H   0  0  0  0  0  0  0  0  0  0  0  0
    8.0900   -5.9911   -1.3250 H   0  0  0  0  0  0  0  0  0  0  0  0
   10.0843   -5.4379   -2.2096 H   0  0  0  0  0  0  0  0  0  0  0  0
  2  1  1  0  0  0  0 
  2  3  1  0  0  0  0 
  2  4  1  0  0  0  0 
  2  5  1  0  0  0  0 
  3  6  1  0  0  0  0 
  3  7  1  0  0  0  0 
  4  8  1  0  0  0  0 
  4  9  1  0  0  0  0 
  5 10  1  0  0  0  0 
  6 11  1  0  0  0  0 
  6 12  1  0  0  0  0 
  7  9  1  0  0  0  0 
  8 13  1  0  0  0  0 
  8 14  2  0  0  0  0 
 11 10  1  0  0  0  0 
 11 15  1  0  0  0  0 
 12 16  1  0  0  0  0 
 13 17  1  0  0  0  0 
 15 18  1  0  0  0  0 
 15 19  1  0  0  0  0 
 15 20  1  0  0  0  0 
 16 19  2  0  0  0  0 
 17 21  1  0  0  0  0 
 19 22  1  0  0  0  0 
 20 23  1  0  0  0  0 
 21 24  1  0  0  0  0 
 21 25  2  0  0  0  0 
 26 22  1  0  0  0  0 
 26 23  1  0  0  0  0 
 26 27  1  0  0  0  0 
 28  1  1  0  0  0  0 
 29  1  1  0  0  0  0 
 30  1  1  0  0  0  0 
  3 31  1  0  0  0  0 
  4 32  1  0  0  0  0 
 33  5  1  0  0  0  0 
 34  5  1  0  0  0  0 
  6 35  1  0  0  0  0 
 36  7  1  0  0  0  0 
 37  7  1  0  0  0  0 
 38  9  1  0  0  0  0 
 39  9  1  0  0  0  0 
 40 10  1  0  0  0  0 
 41 10  1  0  0  0  0 
 11 42  1  0  0  0  0 
 43 12  1  0  0  0  0 
 44 12  1  0  0  0  0 
 45 13  1  0  0  0  0 
 46 13  1  0  0  0  0 
 47 16  1  0  0  0  0 
 48 18  1  0  0  0  0 
 49 18  1  0  0  0  0 
 50 18  1  0  0  0  0 
 51 20  1  0  0  0  0 
 52 20  1  0  0  0  0 
 53 22  1  0  0  0  0 
 54 22  1  0  0  0  0 
 55 23  1  0  0  0  0 
 56 23  1  0  0  0  0 
 57 24  1  0  0  0  0 
 58 24  1  0  0  0  0 
 59 24  1  0  0  0  0 
 26 60  1  0  0  0  0 
 61 27  1  0  0  0  0 
M  END
> <cdk:Title>
artisone acetate

> <Conformer>
5

> <SuperDrugID>
SD000012

$$$$
artisone acetate
  CDK     0628171801

 61 64  0  0  0  0  0  0  0  0999 V2000
   -2.2624   -3.2562   -0.5763 C   0  0  0  0  0  0  0  0  0  0  0  0
   -2.9809   -1.9248   -0.1268 C   0  0  2  0  0  0  0  0  0  0  0  0
   -4.5300   -1.9152   -0.3478 C   0  0  2  0  0  0  0  0  0  0  0  0
   -2.5541   -0.7334   -1.0609 C   0  0  1  0  0  0  0  0  0  0  0  0
   -2.7776   -1.6813    1.4089 C   0  0  2  0  0  0  0  0  0  0  0  0
   -5.2506   -3.1021    0.3621 C   0  0  1  0  0  0  0  0  0  0  0  0
   -4.7167   -1.7345   -1.8647 C   0  0  1  0  0  0  0  0  0  0  0  0
   -1.0992   -0.6170   -1.4157 C   0  0  0  0  0  0  0  0  0  0  0  0
   -3.5325   -0.8307   -2.2808 C   0  0  1  0  0  0  0  0  0  0  0  0
   -3.5009   -2.7406    2.2997 C   0  0  2  0  0  0  0  0  0  0  0  0
   -4.9988   -3.0553    1.9131 C   0  0  2  0  0  0  0  0  0  0  0  0
   -6.7832   -3.1124    0.1086 C   0  0  1  0  0  0  0  0  0  0  0  0
   -0.0494   -0.2569   -0.4351 C   0  0  2  0  0  0  0  0  0  0  0  0
   -0.7167   -0.7904   -2.5977 O   0  0  0  0  0  0  0  0  0  0  0  0
   -5.6672   -4.3275    2.6180 C   0  0  2  0  0  0  0  0  0  0  0  0
   -7.5029   -4.0622    0.9339 C   0  0  0  0  0  0  0  0  0  0  0  0
   -0.4480    0.8761    0.3468 O   0  0  0  0  0  0  0  0  0  0  0  0
   -4.7461   -5.5977    2.4377 C   0  0  0  0  0  0  0  0  0  0  0  0
   -7.0309   -4.6328    2.0667 C   0  0  0  0  0  0  0  0  0  0  0  0
   -5.8332   -4.0116    4.1561 C   0  0  2  0  0  0  0  0  0  0  0  0
    0.2911    1.5248    1.2959 C   0  0  0  0  0  0  0  0  0  0  0  0
   -7.9010   -5.6009    2.7717 C   0  0  1  0  0  0  0  0  0  0  0  0
   -6.6183   -5.0913    4.9469 C   0  0  1  0  0  0  0  0  0  0  0  0
    1.7338    1.2819    1.5026 C   0  0  0  0  0  0  0  0  0  0  0  0
   -0.3037    2.3780    1.9909 O   0  0  0  0  0  0  0  0  0  0  0  0
   -8.0009   -5.3389    4.2977 C   0  0  2  0  0  0  0  0  0  0  0  0
   -8.6346   -6.4535    4.9242 O   0  0  0  0  0  0  0  0  0  0  0  0
   -2.6142   -4.1298   -0.0307 H   0  0  0  0  0  0  0  0  0  0  0  0
   -2.4070   -3.4517   -1.6391 H   0  0  0  0  0  0  0  0  0  0  0  0
   -1.1902   -3.1912   -0.3958 H   0  0  0  0  0  0  0  0  0  0  0  0
   -4.9536   -1.0026    0.0967 H   0  0  0  0  0  0  0  0  0  0  0  0
   -2.8092    0.2048   -0.5540 H   0  0  0  0  0  0  0  0  0  0  0  0
   -3.1530   -0.6894    1.6816 H   0  0  0  0  0  0  0  0  0  0  0  0
   -1.7128   -1.6898    1.6497 H   0  0  0  0  0  0  0  0  0  0  0  0
   -4.8701   -4.0355   -0.0547 H   0  0  0  0  0  0  0  0  0  0  0  0
   -4.6762   -2.6980   -2.3809 H   0  0  0  0  0  0  0  0  0  0  0  0
   -5.6765   -1.2577   -2.0893 H   0  0  0  0  0  0  0  0  0  0  0  0
   -3.8936    0.1671   -2.5474 H   0  0  0  0  0  0  0  0  0  0  0  0
   -3.0608   -1.2624   -3.1658 H   0  0  0  0  0  0  0  0  0  0  0  0
   -3.4667   -2.3779    3.3318 H   0  0  0  0  0  0  0  0  0  0  0  0
   -2.8968   -3.6444    2.2683 H   0  0  0  0  0  0  0  0  0  0  0  0
   -5.5452   -2.1689    2.2613 H   0  0  0  0  0  0  0  0  0  0  0  0
   -7.2056   -2.1204    0.2919 H   0  0  0  0  0  0  0  0  0  0  0  0
   -6.9650   -3.3645   -0.9398 H   0  0  0  0  0  0  0  0  0  0  0  0
    0.8823   -0.0132   -0.9572 H   0  0  0  0  0  0  0  0  0  0  0  0
    0.1483   -1.1068    0.2206 H   0  0  0  0  0  0  0  0  0  0  0  0
   -8.4184   -4.2921    0.6158 H   0  0  0  0  0  0  0  0  0  0  0  0
   -3.8538   -5.5347    3.0605 H   0  0  0  0  0  0  0  0  0  0  0  0
   -4.4216   -5.7174    1.4063 H   0  0  0  0  0  0  0  0  0  0  0  0
   -5.2383   -6.5260    2.7189 H   0  0  0  0  0  0  0  0  0  0  0  0
   -6.3661   -3.0621    4.2834 H   0  0  0  0  0  0  0  0  0  0  0  0
   -4.8565   -3.8921    4.6313 H   0  0  0  0  0  0  0  0  0  0  0  0
   -8.9267   -5.6021    2.3837 H   0  0  0  0  0  0  0  0  0  0  0  0
   -7.5173   -6.6093    2.5995 H   0  0  0  0  0  0  0  0  0  0  0  0
   -6.0482   -6.0243    4.9777 H   0  0  0  0  0  0  0  0  0  0  0  0
   -6.7597   -4.7533    5.9781 H   0  0  0  0  0  0  0  0  0  0  0  0
    2.2401    1.6068    0.5459 H   0  0  0  0  0  0  0  0  0  0  0  0
    2.1060    2.0100    2.2871 H   0  0  0  0  0  0  0  0  0  0  0  0
    1.8303    0.1471    1.7709 H   0  0  0  0  0  0  0  0  0  0  0  0
   -8.6327   -4.4598    4.4606 H   0  0  0  0  0  0  0  0  0  0  0  0
   -8.6406   -6.2479    5.8814 H   0  0  0  0  0  0  0  0  0  0  0  0
  2  1  1  0  0  0  0 
  2  3  1  0  0  0  0 
  2  4  1  0  0  0  0 
  2  5  1  0  0  0  0 
  3  6  1  0  0  0  0 
  3  7  1  0  0  0  0 
  4  8  1  0  0  0  0 
  4  9  1  0  0  0  0 
  5 10  1  0  0  0  0 
  6 11  1  0  0  0  0 
  6 12  1  0  0  0  0 
  7  9  1  0  0  0  0 
  8 13  1  0  0  0  0 
  8 14  2  0  0  0  0 
 11 10  1  0  0  0  0 
 11 15  1  0  0  0  0 
 12 16  1  0  0  0  0 
 13 17  1  0  0  0  0 
 15 18  1  0  0  0  0 
 15 19  1  0  0  0  0 
 15 20  1  0  0  0  0 
 16 19  2  0  0  0  0 
 17 21  1  0  0  0  0 
 19 22  1  0  0  0  0 
 20 23  1  0  0  0  0 
 21 24  1  0  0  0  0 
 21 25  2  0  0  0  0 
 26 22  1  0  0  0  0 
 26 23  1  0  0  0  0 
 26 27  1  0  0  0  0 
 28  1  1  0  0  0  0 
 29  1  1  0  0  0  0 
 30  1  1  0  0  0  0 
  3 31  1  0  0  0  0 
  4 32  1  0  0  0  0 
 33  5  1  0  0  0  0 
 34  5  1  0  0  0  0 
  6 35  1  0  0  0  0 
 36  7  1  0  0  0  0 
 37  7  1  0  0  0  0 
 38  9  1  0  0  0  0 
 39  9  1  0  0  0  0 
 40 10  1  0  0  0  0 
 41 10  1  0  0  0  0 
 11 42  1  0  0  0  0 
 43 12  1  0  0  0  0 
 44 12  1  0  0  0  0 
 45 13  1  0  0  0  0 
 46 13  1  0  0  0  0 
 47 16  1  0  0  0  0 
 48 18  1  0  0  0  0 
 49 18  1  0  0  0  0 
 50 18  1  0  0  0  0 
 51 20  1  0  0  0  0 
 52 20  1  0  0  0  0 
 53 22  1  0  0  0  0 
 54 22  1  0  0  0  0 
 55 23  1  0  0  0  0 
 56 23  1  0  0  0  0 
 57 24  1  0  0  0  0 
 58 24  1  0  0  0  0 
 59 24  1  0  0  0  0 
 26 60  1  0  0  0  0 
 61 27  1  0  0  0  0 
M  END
> <cdk:Title>
artisone acetate

> <Conformer>
6

> <SuperDrugID>
SD000012

$$$$
artisone acetate
  CDK     0628171801

 61 64  0  0  0  0  0  0  0  0999 V2000
   -1.7673   -1.6986   -3.6634 C   0  0  0  0  0  0  0  0  0  0  0  0
   -2.4708   -0.4749   -2.9562 C   0  0  2  0  0  0  0  0  0  0  0  0
   -3.3870    0.3701   -3.8999 C   0  0  2  0  0  0  0  0  0  0  0  0
   -1.3950    0.6095   -2.5706 C   0  0  1  0  0  0  0  0  0  0  0  0
   -3.3996   -0.9780   -1.7953 C   0  0  2  0  0  0  0  0  0  0  0  0
   -4.5329   -0.4645   -4.5663 C   0  0  1  0  0  0  0  0  0  0  0  0
   -2.4085    1.1442   -4.8048 C   0  0  1  0  0  0  0  0  0  0  0  0
   -0.1455    0.1168   -1.9021 C   0  0  0  0  0  0  0  0  0  0  0  0
   -1.1681    1.3940   -3.9098 C   0  0  1  0  0  0  0  0  0  0  0  0
   -4.6464   -1.7706   -2.3076 C   0  0  2  0  0  0  0  0  0  0  0  0
   -5.4671   -1.0732   -3.4602 C   0  0  2  0  0  0  0  0  0  0  0  0
   -5.3892    0.3879   -5.5432 C   0  0  1  0  0  0  0  0  0  0  0  0
   -0.0813   -0.2547   -0.4686 C   0  0  2  0  0  0  0  0  0  0  0  0
    0.9165    0.0083   -2.5622 O   0  0  0  0  0  0  0  0  0  0  0  0
   -6.6630   -1.9234   -4.1107 C   0  0  2  0  0  0  0  0  0  0  0  0
   -6.5922   -0.2761   -5.9995 C   0  0  0  0  0  0  0  0  0  0  0  0
   -0.4439    0.8572    0.3648 O   0  0  0  0  0  0  0  0  0  0  0  0
   -6.1803   -3.3933   -4.4224 C   0  0  0  0  0  0  0  0  0  0  0  0
   -7.1940   -1.3163   -5.3779 C   0  0  0  0  0  0  0  0  0  0  0  0
   -7.8581   -1.9614   -3.0789 C   0  0  2  0  0  0  0  0  0  0  0  0
    0.3022    1.5192    1.3029 C   0  0  0  0  0  0  0  0  0  0  0  0
   -8.4367   -1.8598   -5.9729 C   0  0  1  0  0  0  0  0  0  0  0  0
   -9.1494   -2.6359   -3.6160 C   0  0  1  0  0  0  0  0  0  0  0  0
    1.7501    1.3094    1.5126 C   0  0  0  0  0  0  0  0  0  0  0  0
   -0.3033    2.3729    1.9894 O   0  0  0  0  0  0  0  0  0  0  0  0
   -9.5952   -1.9789   -4.9461 C   0  0  2  0  0  0  0  0  0  0  0  0
  -10.6685   -2.7286   -5.5145 O   0  0  0  0  0  0  0  0  0  0  0  0
   -2.4776   -2.4318   -4.0399 H   0  0  0  0  0  0  0  0  0  0  0  0
   -1.1552   -1.3834   -4.5098 H   0  0  0  0  0  0  0  0  0  0  0  0
   -1.1139   -2.2191   -2.9619 H   0  0  0  0  0  0  0  0  0  0  0  0
   -3.8866    1.1452   -3.2996 H   0  0  0  0  0  0  0  0  0  0  0  0
   -1.8524    1.3248   -1.8756 H   0  0  0  0  0  0  0  0  0  0  0  0
   -3.7463   -0.1321   -1.1962 H   0  0  0  0  0  0  0  0  0  0  0  0
   -2.8386   -1.6297   -1.1261 H   0  0  0  0  0  0  0  0  0  0  0  0
   -4.0926   -1.2680   -5.1611 H   0  0  0  0  0  0  0  0  0  0  0  0
   -2.1441    0.5433   -5.6798 H   0  0  0  0  0  0  0  0  0  0  0  0
   -2.8479    2.0855   -5.1474 H   0  0  0  0  0  0  0  0  0  0  0  0
   -1.0344    2.4630   -3.7112 H   0  0  0  0  0  0  0  0  0  0  0  0
   -0.2837    1.0491   -4.4541 H   0  0  0  0  0  0  0  0  0  0  0  0
   -5.3053   -1.9509   -1.4542 H   0  0  0  0  0  0  0  0  0  0  0  0
   -4.2865   -2.7438   -2.6340 H   0  0  0  0  0  0  0  0  0  0  0  0
   -5.9264   -0.2077   -2.9676 H   0  0  0  0  0  0  0  0  0  0  0  0
   -5.6910    1.3217   -5.0626 H   0  0  0  0  0  0  0  0  0  0  0  0
   -4.7809    0.6415   -6.4167 H   0  0  0  0  0  0  0  0  0  0  0  0
    0.9165   -0.6243   -0.2190 H   0  0  0  0  0  0  0  0  0  0  0  0
   -0.7711   -1.0718   -0.2684 H   0  0  0  0  0  0  0  0  0  0  0  0
   -6.9914    0.0930   -6.8338 H   0  0  0  0  0  0  0  0  0  0  0  0
   -6.0053   -3.9550   -3.5018 H   0  0  0  0  0  0  0  0  0  0  0  0
   -5.2555   -3.3854   -5.0020 H   0  0  0  0  0  0  0  0  0  0  0  0
   -6.9076   -3.9774   -4.9872 H   0  0  0  0  0  0  0  0  0  0  0  0
   -8.1270   -0.9393   -2.7853 H   0  0  0  0  0  0  0  0  0  0  0  0
   -7.5554   -2.4812   -2.1660 H   0  0  0  0  0  0  0  0  0  0  0  0
   -8.8113   -1.2453   -6.7988 H   0  0  0  0  0  0  0  0  0  0  0  0
   -8.2304   -2.8387   -6.4091 H   0  0  0  0  0  0  0  0  0  0  0  0
   -8.9751   -3.7040   -3.7631 H   0  0  0  0  0  0  0  0  0  0  0  0
   -9.9463   -2.5295   -2.8739 H   0  0  0  0  0  0  0  0  0  0  0  0
    2.0836    1.9778    2.3638 H   0  0  0  0  0  0  0  0  0  0  0  0
    1.8694    0.2615    1.9193 H   0  0  0  0  0  0  0  0  0  0  0  0
    2.2479    1.5240    0.4746 H   0  0  0  0  0  0  0  0  0  0  0  0
   -9.9715   -0.9754   -4.7286 H   0  0  0  0  0  0  0  0  0  0  0  0
  -11.3809   -2.7121   -4.8405 H   0  0  0  0  0  0  0  0  0  0  0  0
  2  1  1  0  0  0  0 
  2  3  1  0  0  0  0 
  2  4  1  0  0  0  0 
  2  5  1  0  0  0  0 
  3  6  1  0  0  0  0 
  3  7  1  0  0  0  0 
  4  8  1  0  0  0  0 
  4  9  1  0  0  0  0 
  5 10  1  0  0  0  0 
  6 11  1  0  0  0  0 
  6 12  1  0  0  0  0 
  7  9  1  0  0  0  0 
  8 13  1  0  0  0  0 
  8 14  2  0  0  0  0 
 11 10  1  0  0  0  0 
 11 15  1  0  0  0  0 
 12 16  1  0  0  0  0 
 13 17  1  0  0  0  0 
 15 18  1  0  0  0  0 
 15 19  1  0  0  0  0 
 15 20  1  0  0  0  0 
 16 19  2  0  0  0  0 
 17 21  1  0  0  0  0 
 19 22  1  0  0  0  0 
 20 23  1  0  0  0  0 
 21 24  1  0  0  0  0 
 21 25  2  0  0  0  0 
 26 22  1  0  0  0  0 
 26 23  1  0  0  0  0 
 26 27  1  0  0  0  0 
 28  1  1  0  0  0  0 
 29  1  1  0  0  0  0 
 30  1  1  0  0  0  0 
  3 31  1  0  0  0  0 
  4 32  1  0  0  0  0 
 33  5  1  0  0  0  0 
 34  5  1  0  0  0  0 
  6 35  1  0  0  0  0 
 36  7  1  0  0  0  0 
 37  7  1  0  0  0  0 
 38  9  1  0  0  0  0 
 39  9  1  0  0  0  0 
 40 10  1  0  0  0  0 
 41 10  1  0  0  0  0 
 11 42  1  0  0  0  0 
 43 12  1  0  0  0  0 
 44 12  1  0  0  0  0 
 45 13  1  0  0  0  0 
 46 13  1  0  0  0  0 
 47 16  1  0  0  0  0 
 48 18  1  0  0  0  0 
 49 18  1  0  0  0  0 
 50 18  1  0  0  0  0 
 51 20  1  0  0  0  0 
 52 20  1  0  0  0  0 
 53 22  1  0  0  0  0 
 54 22  1  0  0  0  0 
 55 23  1  0  0  0  0 
 56 23  1  0  0  0  0 
 57 24  1  0  0  0  0 
 58 24  1  0  0  0  0 
 59 24  1  0  0  0  0 
 26 60  1  0  0  0  0 
 61 27  1  0  0  0  0 
M  END
> <cdk:Title>
artisone acetate

> <Conformer>
7

> <SuperDrugID>
SD000012

$$$$
artisone acetate
  CDK     0628171801

 61 64  0  0  0  0  0  0  0  0999 V2000
   -3.7347   -0.4975   -0.6252 C   0  0  0  0  0  0  0  0  0  0  0  0
   -2.9370   -1.4305   -1.6138 C   0  0  2  0  0  0  0  0  0  0  0  0
   -3.7500   -2.6520   -2.1602 C   0  0  2  0  0  0  0  0  0  0  0  0
   -1.7948   -2.1925   -0.8391 C   0  0  1  0  0  0  0  0  0  0  0  0
   -2.4969   -0.6154   -2.8848 C   0  0  2  0  0  0  0  0  0  0  0  0
   -5.0592   -2.2502   -2.9137 C   0  0  1  0  0  0  0  0  0  0  0  0
   -3.8544   -3.6291   -0.9758 C   0  0  1  0  0  0  0  0  0  0  0  0
   -0.9660   -1.4074    0.1342 C   0  0  0  0  0  0  0  0  0  0  0  0
   -2.5175   -3.4394   -0.2229 C   0  0  1  0  0  0  0  0  0  0  0  0
   -3.7011   -0.2026   -3.7946 C   0  0  2  0  0  0  0  0  0  0  0  0
   -4.7031   -1.3651   -4.1586 C   0  0  2  0  0  0  0  0  0  0  0  0
   -5.8751   -3.4916   -3.3747 C   0  0  1  0  0  0  0  0  0  0  0  0
   -0.0028   -0.3626   -0.2675 C   0  0  2  0  0  0  0  0  0  0  0  0
   -1.0374   -1.6294    1.3665 O   0  0  0  0  0  0  0  0  0  0  0  0
   -6.0250   -0.9419   -4.9539 C   0  0  2  0  0  0  0  0  0  0  0  0
   -6.9101   -3.2024   -4.3465 C   0  0  0  0  0  0  0  0  0  0  0  0
   -0.4089    0.8717    0.3451 O   0  0  0  0  0  0  0  0  0  0  0  0
   -6.7278    0.2768   -4.2426 C   0  0  0  0  0  0  0  0  0  0  0  0
   -7.0141   -2.0641   -5.0703 C   0  0  0  0  0  0  0  0  0  0  0  0
   -5.6035   -0.5261   -6.4165 C   0  0  2  0  0  0  0  0  0  0  0  0
    0.2680    1.6685    1.2259 C   0  0  0  0  0  0  0  0  0  0  0  0
   -8.1587   -1.9288   -6.0025 C   0  0  1  0  0  0  0  0  0  0  0  0
   -6.7914   -0.2363   -7.3698 C   0  0  1  0  0  0  0  0  0  0  0  0
    1.7351    1.6880    1.3694 C   0  0  0  0  0  0  0  0  0  0  0  0
   -0.4266    2.4532    1.9110 O   0  0  0  0  0  0  0  0  0  0  0  0
   -7.7592   -1.4409   -7.4191 C   0  0  2  0  0  0  0  0  0  0  0  0
   -8.9347   -1.0728   -8.1413 O   0  0  0  0  0  0  0  0  0  0  0  0
   -4.5806   -0.0115   -1.1073 H   0  0  0  0  0  0  0  0  0  0  0  0
   -4.1215   -1.0532    0.2301 H   0  0  0  0  0  0  0  0  0  0  0  0
   -3.0878    0.2957   -0.2460 H   0  0  0  0  0  0  0  0  0  0  0  0
   -3.1337   -3.1808   -2.9023 H   0  0  0  0  0  0  0  0  0  0  0  0
   -1.0843   -2.5843   -1.5763 H   0  0  0  0  0  0  0  0  0  0  0  0
   -1.7953   -1.2056   -3.4833 H   0  0  0  0  0  0  0  0  0  0  0  0
   -1.9664    0.2934   -2.5898 H   0  0  0  0  0  0  0  0  0  0  0  0
   -5.7013   -1.6844   -2.2358 H   0  0  0  0  0  0  0  0  0  0  0  0
   -4.7037   -3.3691   -0.3378 H   0  0  0  0  0  0  0  0  0  0  0  0
   -3.9739   -4.6627   -1.3173 H   0  0  0  0  0  0  0  0  0  0  0  0
   -1.8911   -4.3299   -0.3327 H   0  0  0  0  0  0  0  0  0  0  0  0
   -2.7395   -3.3116    0.8395 H   0  0  0  0  0  0  0  0  0  0  0  0
   -3.2919    0.2185   -4.7160 H   0  0  0  0  0  0  0  0  0  0  0  0
   -4.2273    0.6064   -3.2900 H   0  0  0  0  0  0  0  0  0  0  0  0
   -4.1302   -2.0250   -4.8214 H   0  0  0  0  0  0  0  0  0  0  0  0
   -5.2117   -4.2423   -3.8139 H   0  0  0  0  0  0  0  0  0  0  0  0
   -6.3462   -3.9398   -2.4952 H   0  0  0  0  0  0  0  0  0  0  0  0
    0.0080   -0.2386   -1.3499 H   0  0  0  0  0  0  0  0  0  0  0  0
    0.9986   -0.6644    0.0486 H   0  0  0  0  0  0  0  0  0  0  0  0
   -7.5859   -3.9215   -4.4679 H   0  0  0  0  0  0  0  0  0  0  0  0
   -6.1643    1.2007   -4.3905 H   0  0  0  0  0  0  0  0  0  0  0  0
   -6.8235    0.1136   -3.1683 H   0  0  0  0  0  0  0  0  0  0  0  0
   -7.7289    0.4685   -4.6289 H   0  0  0  0  0  0  0  0  0  0  0  0
   -5.0117   -1.3266   -6.8711 H   0  0  0  0  0  0  0  0  0  0  0  0
   -4.9700    0.3623   -6.3950 H   0  0  0  0  0  0  0  0  0  0  0  0
   -8.7040   -2.8680   -6.1389 H   0  0  0  0  0  0  0  0  0  0  0  0
   -8.8810   -1.2298   -5.5777 H   0  0  0  0  0  0  0  0  0  0  0  0
   -7.3267    0.6596   -7.0455 H   0  0  0  0  0  0  0  0  0  0  0  0
   -6.4082   -0.0429   -8.3751 H   0  0  0  0  0  0  0  0  0  0  0  0
    1.9949    2.4209    2.1911 H   0  0  0  0  0  0  0  0  0  0  0  0
    2.0324    0.6868    1.7943 H   0  0  0  0  0  0  0  0  0  0  0  0
    2.1481    1.9448    0.3052 H   0  0  0  0  0  0  0  0  0  0  0  0
   -7.2722   -2.2594   -7.9568 H   0  0  0  0  0  0  0  0  0  0  0  0
   -8.6067   -0.7107   -8.9906 H   0  0  0  0  0  0  0  0  0  0  0  0
  2  1  1  0  0  0  0 
  2  3  1  0  0  0  0 
  2  4  1  0  0  0  0 
  2  5  1  0  0  0  0 
  3  6  1  0  0  0  0 
  3  7  1  0  0  0  0 
  4  8  1  0  0  0  0 
  4  9  1  0  0  0  0 
  5 10  1  0  0  0  0 
  6 11  1  0  0  0  0 
  6 12  1  0  0  0  0 
  7  9  1  0  0  0  0 
  8 13  1  0  0  0  0 
  8 14  2  0  0  0  0 
 11 10  1  0  0  0  0 
 11 15  1  0  0  0  0 
 12 16  1  0  0  0  0 
 13 17  1  0  0  0  0 
 15 18  1  0  0  0  0 
 15 19  1  0  0  0  0 
 15 20  1  0  0  0  0 
 16 19  2  0  0  0  0 
 17 21  1  0  0  0  0 
 19 22  1  0  0  0  0 
 20 23  1  0  0  0  0 
 21 24  1  0  0  0  0 
 21 25  2  0  0  0  0 
 26 22  1  0  0  0  0 
 26 23  1  0  0  0  0 
 26 27  1  0  0  0  0 
 28  1  1  0  0  0  0 
 29  1  1  0  0  0  0 
 30  1  1  0  0  0  0 
  3 31  1  0  0  0  0 
  4 32  1  0  0  0  0 
 33  5  1  0  0  0  0 
 34  5  1  0  0  0  0 
  6 35  1  0  0  0  0 
 36  7  1  0  0  0  0 
 37  7  1  0  0  0  0 
 38  9  1  0  0  0  0 
 39  9  1  0  0  0  0 
 40 10  1  0  0  0  0 
 41 10  1  0  0  0  0 
 11 42  1  0  0  0  0 
 43 12  1  0  0  0  0 
 44 12  1  0  0  0  0 
 45 13  1  0  0  0  0 
 46 13  1  0  0  0  0 
 47 16  1  0  0  0  0 
 48 18  1  0  0  0  0 
 49 18  1  0  0  0  0 
 50 18  1  0  0  0  0 
 51 20  1  0  0  0  0 
 52 20  1  0  0  0  0 
 53 22  1  0  0  0  0 
 54 22  1  0  0  0  0 
 55 23  1  0  0  0  0 
 56 23  1  0  0  0  0 
 57 24  1  0  0  0  0 
 58 24  1  0  0  0  0 
 59 24  1  0  0  0  0 
 26 60  1  0  0  0  0 
 61 27  1  0  0  0  0 
M  END
> <cdk:Title>
artisone acetate

> <Conformer>
8

> <SuperDrugID>
SD000012

$$$$
artisone acetate
  CDK     0628171801

 61 64  0  0  0  0  0  0  0  0999 V2000
   -3.6856    0.4900   -1.3364 C   0  0  0  0  0  0  0  0  0  0  0  0
   -2.9583   -0.5534   -2.2682 C   0  0  2  0  0  0  0  0  0  0  0  0
   -3.9190   -1.5083   -3.0532 C   0  0  2  0  0  0  0  0  0  0  0  0
   -2.1837   -1.6089   -1.3922 C   0  0  1  0  0  0  0  0  0  0  0  0
   -2.1194    0.1967   -3.3672 C   0  0  2  0  0  0  0  0  0  0  0  0
   -4.9430   -0.7534   -3.9619 C   0  0  1  0  0  0  0  0  0  0  0  0
   -4.4525   -2.4981   -2.0011 C   0  0  1  0  0  0  0  0  0  0  0  0
   -1.3927   -1.1024   -0.2251 C   0  0  0  0  0  0  0  0  0  0  0  0
   -3.2663   -2.6802   -1.0273 C   0  0  1  0  0  0  0  0  0  0  0  0
   -3.0122    0.9456   -4.4078 C   0  0  2  0  0  0  0  0  0  0  0  0
   -4.1816    0.0971   -5.0384 C   0  0  2  0  0  0  0  0  0  0  0  0
   -5.9131   -1.7301   -4.6841 C   0  0  1  0  0  0  0  0  0  0  0  0
   -0.1494   -0.3191   -0.3681 C   0  0  2  0  0  0  0  0  0  0  0  0
   -1.7464   -1.3540    0.9521 O   0  0  0  0  0  0  0  0  0  0  0  0
   -5.2140    0.8974   -5.9614 C   0  0  2  0  0  0  0  0  0  0  0  0
   -6.7041   -1.1073   -5.7273 C   0  0  0  0  0  0  0  0  0  0  0  0
   -0.3640    0.9635    0.2358 O   0  0  0  0  0  0  0  0  0  0  0  0
   -5.6803    2.2237   -5.2431 C   0  0  0  0  0  0  0  0  0  0  0  0
   -6.4237    0.0794   -6.3142 C   0  0  0  0  0  0  0  0  0  0  0  0
   -4.4798    1.2651   -7.3114 C   0  0  2  0  0  0  0  0  0  0  0  0
    0.3157    1.5282    1.2770 C   0  0  0  0  0  0  0  0  0  0  0  0
   -7.3495    0.5748   -7.3584 C   0  0  1  0  0  0  0  0  0  0  0  0
   -5.3995    1.8866   -8.3939 C   0  0  1  0  0  0  0  0  0  0  0  0
    1.7559    1.3402    1.5296 C   0  0  0  0  0  0  0  0  0  0  0  0
   -0.3342    2.2912    2.0267 O   0  0  0  0  0  0  0  0  0  0  0  0
   -6.6259    0.9829   -8.6684 C   0  0  2  0  0  0  0  0  0  0  0  0
   -7.5445    1.6709   -9.5164 O   0  0  0  0  0  0  0  0  0  0  0  0
   -4.3169    1.1777   -1.8940 H   0  0  0  0  0  0  0  0  0  0  0  0
   -4.3186   -0.0009   -0.5948 H   0  0  0  0  0  0  0  0  0  0  0  0
   -2.9539    1.1006   -0.8041 H   0  0  0  0  0  0  0  0  0  0  0  0
   -3.3165   -2.1274   -3.7359 H   0  0  0  0  0  0  0  0  0  0  0  0
   -1.4581   -2.1183   -2.0352 H   0  0  0  0  0  0  0  0  0  0  0  0
   -1.4807   -0.5096   -3.9061 H   0  0  0  0  0  0  0  0  0  0  0  0
   -1.4518    0.9255   -2.9021 H   0  0  0  0  0  0  0  0  0  0  0  0
   -5.5545   -0.0963   -3.3393 H   0  0  0  0  0  0  0  0  0  0  0  0
   -5.3265   -2.0877   -1.4870 H   0  0  0  0  0  0  0  0  0  0  0  0
   -4.7369   -3.4480   -2.4616 H   0  0  0  0  0  0  0  0  0  0  0  0
   -2.8495   -3.6867   -1.1166 H   0  0  0  0  0  0  0  0  0  0  0  0
   -3.6413   -2.5694   -0.0090 H   0  0  0  0  0  0  0  0  0  0  0  0
   -2.3654    1.3139   -5.2069 H   0  0  0  0  0  0  0  0  0  0  0  0
   -3.4105    1.8203   -3.9007 H   0  0  0  0  0  0  0  0  0  0  0  0
   -3.6769   -0.6387   -5.6797 H   0  0  0  0  0  0  0  0  0  0  0  0
   -5.3491   -2.5505   -5.1410 H   0  0  0  0  0  0  0  0  0  0  0  0
   -6.5932   -2.1561   -3.9381 H   0  0  0  0  0  0  0  0  0  0  0  0
    0.1174   -0.1743   -1.4133 H   0  0  0  0  0  0  0  0  0  0  0  0
    0.6663   -0.8619    0.1133 H   0  0  0  0  0  0  0  0  0  0  0  0
   -7.5084   -1.6198   -6.0186 H   0  0  0  0  0  0  0  0  0  0  0  0
   -4.8732    2.9581   -5.2099 H   0  0  0  0  0  0  0  0  0  0  0  0
   -6.0046    2.0316   -4.2190 H   0  0  0  0  0  0  0  0  0  0  0  0
   -6.5027    2.7209   -5.7542 H   0  0  0  0  0  0  0  0  0  0  0  0
   -4.0241    0.3694   -7.7464 H   0  0  0  0  0  0  0  0  0  0  0  0
   -3.6670    1.9696   -7.1227 H   0  0  0  0  0  0  0  0  0  0  0  0
   -8.1153   -0.1611   -7.6309 H   0  0  0  0  0  0  0  0  0  0  0  0
   -7.8929    1.4394   -6.9719 H   0  0  0  0  0  0  0  0  0  0  0  0
   -5.7299    2.8761   -8.0705 H   0  0  0  0  0  0  0  0  0  0  0  0
   -4.8317    2.0166   -9.3187 H   0  0  0  0  0  0  0  0  0  0  0  0
    2.2316    1.0139    0.5583 H   0  0  0  0  0  0  0  0  0  0  0  0
    2.1965    2.3651    1.7185 H   0  0  0  0  0  0  0  0  0  0  0  0
    1.8207    0.5813    2.4176 H   0  0  0  0  0  0  0  0  0  0  0  0
   -6.2986    0.0820   -9.1954 H   0  0  0  0  0  0  0  0  0  0  0  0
   -7.0267    1.9365  -10.3061 H   0  0  0  0  0  0  0  0  0  0  0  0
  2  1  1  0  0  0  0 
  2  3  1  0  0  0  0 
  2  4  1  0  0  0  0 
  2  5  1  0  0  0  0 
  3  6  1  0  0  0  0 
  3  7  1  0  0  0  0 
  4  8  1  0  0  0  0 
  4  9  1  0  0  0  0 
  5 10  1  0  0  0  0 
  6 11  1  0  0  0  0 
  6 12  1  0  0  0  0 
  7  9  1  0  0  0  0 
  8 13  1  0  0  0  0 
  8 14  2  0  0  0  0 
 11 10  1  0  0  0  0 
 11 15  1  0  0  0  0 
 12 16  1  0  0  0  0 
 13 17  1  0  0  0  0 
 15 18  1  0  0  0  0 
 15 19  1  0  0  0  0 
 15 20  1  0  0  0  0 
 16 19  2  0  0  0  0 
 17 21  1  0  0  0  0 
 19 22  1  0  0  0  0 
 20 23  1  0  0  0  0 
 21 24  1  0  0  0  0 
 21 25  2  0  0  0  0 
 26 22  1  0  0  0  0 
 26 23  1  0  0  0  0 
 26 27  1  0  0  0  0 
 28  1  1  0  0  0  0 
 29  1  1  0  0  0  0 
 30  1  1  0  0  0  0 
  3 31  1  0  0  0  0 
  4 32  1  0  0  0  0 
 33  5  1  0  0  0  0 
 34  5  1  0  0  0  0 
  6 35  1  0  0  0  0 
 36  7  1  0  0  0  0 
 37  7  1  0  0  0  0 
 38  9  1  0  0  0  0 
 39  9  1  0  0  0  0 
 40 10  1  0  0  0  0 
 41 10  1  0  0  0  0 
 11 42  1  0  0  0  0 
 43 12  1  0  0  0  0 
 44 12  1  0  0  0  0 
 45 13  1  0  0  0  0 
 46 13  1  0  0  0  0 
 47 16  1  0  0  0  0 
 48 18  1  0  0  0  0 
 49 18  1  0  0  0  0 
 50 18  1  0  0  0  0 
 51 20  1  0  0  0  0 
 52 20  1  0  0  0  0 
 53 22  1  0  0  0  0 
 54 22  1  0  0  0  0 
 55 23  1  0  0  0  0 
 56 23  1  0  0  0  0 
 57 24  1  0  0  0  0 
 58 24  1  0  0  0  0 
 59 24  1  0  0  0  0 
 26 60  1  0  0  0  0 
 61 27  1  0  0  0  0 
M  END
> <cdk:Title>
artisone acetate

> <Conformer>
9

> <SuperDrugID>
SD000012

$$$$
artisone acetate
  CDK     0628171801

 61 64  0  0  0  0  0  0  0  0999 V2000
   -3.3605   -1.9974   -1.3304 C   0  0  0  0  0  0  0  0  0  0  0  0
   -3.4004   -0.4480   -1.6333 C   0  0  2  0  0  0  0  0  0  0  0  0
   -4.3561   -0.0366   -2.8047 C   0  0  2  0  0  0  0  0  0  0  0  0
   -2.0098    0.0135   -2.2152 C   0  0  1  0  0  0  0  0  0  0  0  0
   -3.9344    0.3507   -0.3870 C   0  0  2  0  0  0  0  0  0  0  0  0
   -5.8228   -0.5365   -2.5857 C   0  0  1  0  0  0  0  0  0  0  0  0
   -3.6226   -0.4515   -4.0920 C   0  0  1  0  0  0  0  0  0  0  0  0
   -0.7577   -0.5428   -1.5945 C   0  0  0  0  0  0  0  0  0  0  0  0
   -2.1276   -0.2550   -3.7574 C   0  0  1  0  0  0  0  0  0  0  0  0
   -5.4369    0.0611   -0.0691 C   0  0  2  0  0  0  0  0  0  0  0  0
   -6.4294    0.1210   -1.2974 C   0  0  2  0  0  0  0  0  0  0  0  0
   -6.7456   -0.2384   -3.7984 C   0  0  1  0  0  0  0  0  0  0  0  0
   -0.3846   -0.3338   -0.1793 C   0  0  2  0  0  0  0  0  0  0  0  0
    0.0574   -1.2030   -2.2828 O   0  0  0  0  0  0  0  0  0  0  0  0
   -7.9229   -0.4008   -1.0444 C   0  0  2  0  0  0  0  0  0  0  0  0
   -8.1458   -0.5011   -3.5368 C   0  0  0  0  0  0  0  0  0  0  0  0
   -0.0934    1.0473    0.0450 O   0  0  0  0  0  0  0  0  0  0  0  0
   -7.8970   -1.7828   -0.2874 C   0  0  0  0  0  0  0  0  0  0  0  0
   -8.7112   -0.5709   -2.3103 C   0  0  0  0  0  0  0  0  0  0  0  0
   -8.6778    0.6695   -0.1677 C   0  0  2  0  0  0  0  0  0  0  0  0
    0.3608    1.5330    1.2341 C   0  0  0  0  0  0  0  0  0  0  0  0
  -10.1676   -0.8246   -2.2284 C   0  0  1  0  0  0  0  0  0  0  0  0
  -10.1813    0.3655    0.0567 C   0  0  1  0  0  0  0  0  0  0  0  0
    1.7476    1.3138    1.6794 C   0  0  0  0  0  0  0  0  0  0  0  0
   -0.4066    2.2437    1.9220 O   0  0  0  0  0  0  0  0  0  0  0  0
  -10.9087    0.1690   -1.2959 C   0  0  2  0  0  0  0  0  0  0  0  0
  -12.2368   -0.2989   -1.0617 O   0  0  0  0  0  0  0  0  0  0  0  0
   -4.3127   -2.3902   -0.9801 H   0  0  0  0  0  0  0  0  0  0  0  0
   -3.0775   -2.5696   -2.2152 H   0  0  0  0  0  0  0  0  0  0  0  0
   -2.6389   -2.2219   -0.5464 H   0  0  0  0  0  0  0  0  0  0  0  0
   -4.4088    1.0631   -2.8603 H   0  0  0  0  0  0  0  0  0  0  0  0
   -1.9387    1.1001   -2.0935 H   0  0  0  0  0  0  0  0  0  0  0  0
   -3.8259    1.4274   -0.5535 H   0  0  0  0  0  0  0  0  0  0  0  0
   -3.3477    0.1118    0.5014 H   0  0  0  0  0  0  0  0  0  0  0  0
   -5.8120   -1.6213   -2.4723 H   0  0  0  0  0  0  0  0  0  0  0  0
   -3.8415   -1.4973   -4.3244 H   0  0  0  0  0  0  0  0  0  0  0  0
   -3.9201    0.1677   -4.9444 H   0  0  0  0  0  0  0  0  0  0  0  0
   -1.7108    0.5875   -4.3198 H   0  0  0  0  0  0  0  0  0  0  0  0
   -1.6043   -1.1600   -4.0786 H   0  0  0  0  0  0  0  0  0  0  0  0
   -5.7632    0.7771    0.6895 H   0  0  0  0  0  0  0  0  0  0  0  0
   -5.4630   -0.9190    0.3980 H   0  0  0  0  0  0  0  0  0  0  0  0
   -6.4966    1.1895   -1.5391 H   0  0  0  0  0  0  0  0  0  0  0  0
   -6.6585    0.8085   -4.1022 H   0  0  0  0  0  0  0  0  0  0  0  0
   -6.4229   -0.8567   -4.6416 H   0  0  0  0  0  0  0  0  0  0  0  0
    0.4971   -0.9344    0.0654 H   0  0  0  0  0  0  0  0  0  0  0  0
   -1.1861   -0.6570    0.4794 H   0  0  0  0  0  0  0  0  0  0  0  0
   -8.7129   -0.6230   -4.3449 H   0  0  0  0  0  0  0  0  0  0  0  0
   -7.5419   -1.6655    0.7368 H   0  0  0  0  0  0  0  0  0  0  0  0
   -7.2525   -2.5047   -0.7932 H   0  0  0  0  0  0  0  0  0  0  0  0
   -8.8812   -2.2378   -0.2036 H   0  0  0  0  0  0  0  0  0  0  0  0
   -8.6204    1.6481   -0.6557 H   0  0  0  0  0  0  0  0  0  0  0  0
   -8.2030    0.7686    0.8101 H   0  0  0  0  0  0  0  0  0  0  0  0
  -10.6627   -0.7703   -3.2031 H   0  0  0  0  0  0  0  0  0  0  0  0
  -10.3303   -1.8444   -1.8790 H   0  0  0  0  0  0  0  0  0  0  0  0
  -10.2978   -0.5238    0.6805 H   0  0  0  0  0  0  0  0  0  0  0  0
  -10.6419    1.2006    0.5893 H   0  0  0  0  0  0  0  0  0  0  0  0
    1.6863    0.6974    2.6266 H   0  0  0  0  0  0  0  0  0  0  0  0
    2.2470    0.6376    0.9223 H   0  0  0  0  0  0  0  0  0  0  0  0
    2.2124    2.3823    1.7899 H   0  0  0  0  0  0  0  0  0  0  0  0
  -10.9803    1.1356   -1.8047 H   0  0  0  0  0  0  0  0  0  0  0  0
  -12.6583    0.3917   -0.5081 H   0  0  0  0  0  0  0  0  0  0  0  0
  2  1  1  0  0  0  0 
  2  3  1  0  0  0  0 
  2  4  1  0  0  0  0 
  2  5  1  0  0  0  0 
  3  6  1  0  0  0  0 
  3  7  1  0  0  0  0 
  4  8  1  0  0  0  0 
  4  9  1  0  0  0  0 
  5 10  1  0  0  0  0 
  6 11  1  0  0  0  0 
  6 12  1  0  0  0  0 
  7  9  1  0  0  0  0 
  8 13  1  0  0  0  0 
  8 14  2  0  0  0  0 
 11 10  1  0  0  0  0 
 11 15  1  0  0  0  0 
 12 16  1  0  0  0  0 
 13 17  1  0  0  0  0 
 15 18  1  0  0  0  0 
 15 19  1  0  0  0  0 
 15 20  1  0  0  0  0 
 16 19  2  0  0  0  0 
 17 21  1  0  0  0  0 
 19 22  1  0  0  0  0 
 20 23  1  0  0  0  0 
 21 24  1  0  0  0  0 
 21 25  2  0  0  0  0 
 26 22  1  0  0  0  0 
 26 23  1  0  0  0  0 
 26 27  1  0  0  0  0 
 28  1  1  0  0  0  0 
 29  1  1  0  0  0  0 
 30  1  1  0  0  0  0 
  3 31  1  0  0  0  0 
  4 32  1  0  0  0  0 
 33  5  1  0  0  0  0 
 34  5  1  0  0  0  0 
  6 35  1  0  0  0  0 
 36  7  1  0  0  0  0 
 37  7  1  0  0  0  0 
 38  9  1  0  0  0  0 
 39  9  1  0  0  0  0 
 40 10  1  0  0  0  0 
 41 10  1  0  0  0  0 
 11 42  1  0  0  0  0 
 43 12  1  0  0  0  0 
 44 12  1  0  0  0  0 
 45 13  1  0  0  0  0 
 46 13  1  0  0  0  0 
 47 16  1  0  0  0  0 
 48 18  1  0  0  0  0 
 49 18  1  0  0  0  0 
 50 18  1  0  0  0  0 
 51 20  1  0  0  0  0 
 52 20  1  0  0  0  0 
 53 22  1  0  0  0  0 
 54 22  1  0  0  0  0 
 55 23  1  0  0  0  0 
 56 23  1  0  0  0  0 
 57 24  1  0  0  0  0 
 58 24  1  0  0  0  0 
 59 24  1  0  0  0  0 
 26 60  1  0  0  0  0 
 61 27  1  0  0  0  0 
M  END
> <cdk:Title>
artisone acetate

> <Conformer>
10

> <SuperDrugID>
SD000012

$$$$
