azaribine
  CDK     0628171801

 43 44  0  0  0  0  0  0  0  0999 V2000
   -1.7536   -6.6196   -0.2671 O   0  0  0  0  0  0  0  0  0  0  0  0
   -1.8599   -7.9815   -0.2604 C   0  0  0  0  0  0  0  0  0  0  0  0
   -0.8841   -5.7676   -1.0374 C   0  0  1  0  0  0  0  0  0  0  0  0
   -1.1730   -8.8708   -1.2152 C   0  0  0  0  0  0  0  0  0  0  0  0
   -2.6119   -8.4721    0.6114 O   0  0  0  0  0  0  0  0  0  0  0  0
   -1.7239   -4.7654   -1.8770 C   0  0  1  0  0  0  0  0  0  0  0  0
   -0.0684   -4.8572   -0.1024 C   0  0  2  0  0  0  0  0  0  0  0  0
   -1.5607   -3.4578   -1.2980 O   0  0  0  0  0  0  0  0  0  0  0  0
   -1.3428   -4.7560   -3.2732 N   0  0  0  0  0  0  0  0  0  0  0  0
    0.1306   -5.4293    1.2034 O   0  0  0  0  0  0  0  0  0  0  0  0
   -0.9555   -3.6010   -0.0088 C   0  0  2  0  0  0  0  0  0  0  0  0
   -1.8905   -5.6065   -4.2021 C   0  0  0  0  0  0  0  0  0  0  0  0
   -0.4146   -3.9053   -3.6619 N   0  0  0  0  0  0  0  0  0  0  0  0
    1.2548   -5.4178    1.9759 C   0  0  0  0  0  0  0  0  0  0  0  0
   -0.1673   -2.3181    0.3478 C   0  0  1  0  0  0  0  0  0  0  0  0
   -2.7645   -6.4577   -3.9161 O   0  0  0  0  0  0  0  0  0  0  0  0
   -1.4814   -5.5347   -5.4962 N   0  0  0  0  0  0  0  0  0  0  0  0
    0.0221   -3.7851   -4.9398 C   0  0  0  0  0  0  0  0  0  0  0  0
    1.2374   -6.1054    3.2740 C   0  0  0  0  0  0  0  0  0  0  0  0
    2.2952   -4.8254    1.6076 O   0  0  0  0  0  0  0  0  0  0  0  0
   -1.0723   -1.2209    0.5223 O   0  0  0  0  0  0  0  0  0  0  0  0
   -0.5389   -4.6459   -5.8944 C   0  0  0  0  0  0  0  0  0  0  0  0
   -0.7248    0.0818    0.7421 C   0  0  0  0  0  0  0  0  0  0  0  0
   -0.1854   -4.6048   -7.0935 O   0  0  0  0  0  0  0  0  0  0  0  0
   -1.7887    1.0652    0.9834 C   0  0  0  0  0  0  0  0  0  0  0  0
    0.4743    0.4486    0.7371 O   0  0  0  0  0  0  0  0  0  0  0  0
   -0.2050   -6.3492   -1.6686 H   0  0  0  0  0  0  0  0  0  0  0  0
   -1.4208   -9.9181   -1.0295 H   0  0  0  0  0  0  0  0  0  0  0  0
   -0.0940   -8.7479   -1.1192 H   0  0  0  0  0  0  0  0  0  0  0  0
   -1.4753   -8.6179   -2.2315 H   0  0  0  0  0  0  0  0  0  0  0  0
   -2.7912   -4.9966   -1.7811 H   0  0  0  0  0  0  0  0  0  0  0  0
    0.8844   -4.6099   -0.5859 H   0  0  0  0  0  0  0  0  0  0  0  0
   -1.7428   -3.7640    0.7364 H   0  0  0  0  0  0  0  0  0  0  0  0
    0.3926   -2.4726    1.2737 H   0  0  0  0  0  0  0  0  0  0  0  0
    0.5394   -2.0917   -0.4553 H   0  0  0  0  0  0  0  0  0  0  0  0
   -1.8701   -6.1338   -6.1522 H   0  0  0  0  0  0  0  0  0  0  0  0
    0.7334   -3.0949   -5.1860 H   0  0  0  0  0  0  0  0  0  0  0  0
    1.4599   -5.4025    4.0789 H   0  0  0  0  0  0  0  0  0  0  0  0
    0.2591   -6.5497    3.4610 H   0  0  0  0  0  0  0  0  0  0  0  0
    1.9864   -6.8975    3.2731 H   0  0  0  0  0  0  0  0  0  0  0  0
   -2.3426    0.7868    1.8805 H   0  0  0  0  0  0  0  0  0  0  0  0
   -2.4725    1.0865    0.1351 H   0  0  0  0  0  0  0  0  0  0  0  0
   -1.3770    2.0661    1.1231 H   0  0  0  0  0  0  0  0  0  0  0  0
  1  2  1  0  0  0  0 
  2  4  1  0  0  0  0 
  2  5  2  0  0  0  0 
  3  1  1  0  0  0  0 
  3  6  1  0  0  0  0 
  3  7  1  0  0  0  0 
  6  8  1  0  0  0  0 
  6  9  1  0  0  0  0 
  7 10  1  0  0  0  0 
  7 11  1  0  0  0  0 
 11  8  1  0  0  0  0 
  9 12  1  0  0  0  0 
  9 13  1  0  0  0  0 
 10 14  1  0  0  0  0 
 11 15  1  0  0  0  0 
 12 16  2  0  0  0  0 
 12 17  1  0  0  0  0 
 13 18  2  0  0  0  0 
 14 19  1  0  0  0  0 
 14 20  2  0  0  0  0 
 15 21  1  0  0  0  0 
 17 22  1  0  0  0  0 
 18 22  1  0  0  0  0 
 21 23  1  0  0  0  0 
 22 24  2  0  0  0  0 
 23 25  1  0  0  0  0 
 23 26  2  0  0  0  0 
  3 27  1  0  0  0  0 
 28  4  1  0  0  0  0 
 29  4  1  0  0  0  0 
 30  4  1  0  0  0  0 
  6 31  1  0  0  0  0 
  7 32  1  0  0  0  0 
 11 33  1  0  0  0  0 
 34 15  1  0  0  0  0 
 35 15  1  0  0  0  0 
 36 17  1  0  0  0  0 
 37 18  1  0  0  0  0 
 38 19  1  0  0  0  0 
 39 19  1  0  0  0  0 
 40 19  1  0  0  0  0 
 41 25  1  0  0  0  0 
 42 25  1  0  0  0  0 
 43 25  1  0  0  0  0 
M  END
> <cdk:Title>
azaribine

> <Conformer>
1

> <SuperDrugID>
SD000010

$$$$
azaribine
  CDK     0628171801

 43 44  0  0  0  0  0  0  0  0999 V2000
   -1.6642   -6.5855   -0.1609 O   0  0  0  0  0  0  0  0  0  0  0  0
   -1.7888   -7.9466   -0.1821 C   0  0  0  0  0  0  0  0  0  0  0  0
   -0.8250   -5.7245   -0.9571 C   0  0  1  0  0  0  0  0  0  0  0  0
   -1.1469   -8.8257   -1.1789 C   0  0  0  0  0  0  0  0  0  0  0  0
   -2.5337   -8.4454    0.6912 O   0  0  0  0  0  0  0  0  0  0  0  0
   -1.7056   -4.7845   -1.8269 C   0  0  1  0  0  0  0  0  0  0  0  0
   -0.0313   -4.7532   -0.0635 C   0  0  2  0  0  0  0  0  0  0  0  0
   -1.6206   -3.4556   -1.2802 O   0  0  0  0  0  0  0  0  0  0  0  0
   -1.3210   -4.7754   -3.2226 N   0  0  0  0  0  0  0  0  0  0  0  0
    0.1829   -5.2710    1.2634 O   0  0  0  0  0  0  0  0  0  0  0  0
   -0.9476   -3.5142   -0.0190 C   0  0  2  0  0  0  0  0  0  0  0  0
   -1.8634   -5.6227   -4.1566 C   0  0  0  0  0  0  0  0  0  0  0  0
   -0.4158   -3.9024   -3.6134 N   0  0  0  0  0  0  0  0  0  0  0  0
    1.3207   -5.2491    2.0149 C   0  0  0  0  0  0  0  0  0  0  0  0
   -0.1691   -2.1987    0.2170 C   0  0  1  0  0  0  0  0  0  0  0  0
   -2.7033   -6.5062   -3.8670 O   0  0  0  0  0  0  0  0  0  0  0  0
   -1.4975   -5.5078   -5.4601 N   0  0  0  0  0  0  0  0  0  0  0  0
   -0.0294   -3.7288   -4.9012 C   0  0  0  0  0  0  0  0  0  0  0  0
    1.3035   -5.8856    3.3409 C   0  0  0  0  0  0  0  0  0  0  0  0
    2.3636   -4.6880    1.6048 O   0  0  0  0  0  0  0  0  0  0  0  0
   -1.0785   -1.1161    0.4361 O   0  0  0  0  0  0  0  0  0  0  0  0
   -0.6039   -4.5718   -5.8641 C   0  0  0  0  0  0  0  0  0  0  0  0
   -0.7280    0.1878    0.6325 C   0  0  0  0  0  0  0  0  0  0  0  0
   -0.2999   -4.4743   -7.0736 O   0  0  0  0  0  0  0  0  0  0  0  0
   -1.7696    1.1732    0.9406 C   0  0  0  0  0  0  0  0  0  0  0  0
    0.4648    0.5666    0.5515 O   0  0  0  0  0  0  0  0  0  0  0  0
   -0.1313   -6.3088   -1.5694 H   0  0  0  0  0  0  0  0  0  0  0  0
   -1.3903   -9.8737   -0.9968 H   0  0  0  0  0  0  0  0  0  0  0  0
   -0.0622   -8.7158   -1.1335 H   0  0  0  0  0  0  0  0  0  0  0  0
   -1.4959   -8.5581   -2.1764 H   0  0  0  0  0  0  0  0  0  0  0  0
   -2.7593   -5.0715   -1.7355 H   0  0  0  0  0  0  0  0  0  0  0  0
    0.9154   -4.5035   -0.5591 H   0  0  0  0  0  0  0  0  0  0  0  0
   -1.6995   -3.6438    0.7677 H   0  0  0  0  0  0  0  0  0  0  0  0
    0.4669   -2.3050    1.0982 H   0  0  0  0  0  0  0  0  0  0  0  0
    0.4625   -1.9825   -0.6502 H   0  0  0  0  0  0  0  0  0  0  0  0
   -1.8855   -6.1067   -6.1188 H   0  0  0  0  0  0  0  0  0  0  0  0
    0.6588   -3.0151   -5.1484 H   0  0  0  0  0  0  0  0  0  0  0  0
    1.4673   -5.1388    4.1154 H   0  0  0  0  0  0  0  0  0  0  0  0
    0.3435   -6.3675    3.5287 H   0  0  0  0  0  0  0  0  0  0  0  0
    2.0874   -6.6398    3.4041 H   0  0  0  0  0  0  0  0  0  0  0  0
   -2.7456    0.6927    1.0123 H   0  0  0  0  0  0  0  0  0  0  0  0
   -1.8062    1.9314    0.1580 H   0  0  0  0  0  0  0  0  0  0  0  0
   -1.5482    1.6527    1.8946 H   0  0  0  0  0  0  0  0  0  0  0  0
  1  2  1  0  0  0  0 
  2  4  1  0  0  0  0 
  2  5  2  0  0  0  0 
  3  1  1  0  0  0  0 
  3  6  1  0  0  0  0 
  3  7  1  0  0  0  0 
  6  8  1  0  0  0  0 
  6  9  1  0  0  0  0 
  7 10  1  0  0  0  0 
  7 11  1  0  0  0  0 
 11  8  1  0  0  0  0 
  9 12  1  0  0  0  0 
  9 13  1  0  0  0  0 
 10 14  1  0  0  0  0 
 11 15  1  0  0  0  0 
 12 16  2  0  0  0  0 
 12 17  1  0  0  0  0 
 13 18  2  0  0  0  0 
 14 19  1  0  0  0  0 
 14 20  2  0  0  0  0 
 15 21  1  0  0  0  0 
 17 22  1  0  0  0  0 
 18 22  1  0  0  0  0 
 21 23  1  0  0  0  0 
 22 24  2  0  0  0  0 
 23 25  1  0  0  0  0 
 23 26  2  0  0  0  0 
  3 27  1  0  0  0  0 
 28  4  1  0  0  0  0 
 29  4  1  0  0  0  0 
 30  4  1  0  0  0  0 
  6 31  1  0  0  0  0 
  7 32  1  0  0  0  0 
 11 33  1  0  0  0  0 
 34 15  1  0  0  0  0 
 35 15  1  0  0  0  0 
 36 17  1  0  0  0  0 
 37 18  1  0  0  0  0 
 38 19  1  0  0  0  0 
 39 19  1  0  0  0  0 
 40 19  1  0  0  0  0 
 41 25  1  0  0  0  0 
 42 25  1  0  0  0  0 
 43 25  1  0  0  0  0 
M  END
> <cdk:Title>
azaribine

> <Conformer>
2

> <SuperDrugID>
SD000010

$$$$
azaribine
  CDK     0628171801

 43 44  0  0  0  0  0  0  0  0999 V2000
   -1.6381   -6.6082   -0.1607 O   0  0  0  0  0  0  0  0  0  0  0  0
   -1.7409   -7.9699   -0.1654 C   0  0  0  0  0  0  0  0  0  0  0  0
   -0.8108   -5.7483   -0.9706 C   0  0  1  0  0  0  0  0  0  0  0  0
   -1.1501   -8.8303   -1.2047 C   0  0  0  0  0  0  0  0  0  0  0  0
   -2.4142   -8.4864    0.7551 O   0  0  0  0  0  0  0  0  0  0  0  0
   -1.6978   -4.8348   -1.8559 C   0  0  1  0  0  0  0  0  0  0  0  0
   -0.0534   -4.7508   -0.0784 C   0  0  2  0  0  0  0  0  0  0  0  0
   -1.6483   -3.4984   -1.3246 O   0  0  0  0  0  0  0  0  0  0  0  0
   -1.2881   -4.8340   -3.2408 N   0  0  0  0  0  0  0  0  0  0  0  0
    0.1497   -5.2535    1.2528 O   0  0  0  0  0  0  0  0  0  0  0  0
   -0.9892   -3.5241   -0.0560 C   0  0  2  0  0  0  0  0  0  0  0  0
   -1.8159   -5.6905   -4.1738 C   0  0  0  0  0  0  0  0  0  0  0  0
   -0.3805   -3.9595   -3.6235 N   0  0  0  0  0  0  0  0  0  0  0  0
    1.2685   -5.1822    2.0282 C   0  0  0  0  0  0  0  0  0  0  0  0
   -0.2260   -2.1957    0.1670 C   0  0  1  0  0  0  0  0  0  0  0  0
   -2.6264   -6.6003   -3.8830 O   0  0  0  0  0  0  0  0  0  0  0  0
   -1.4725   -5.5458   -5.4796 N   0  0  0  0  0  0  0  0  0  0  0  0
   -0.0213   -3.7534   -4.9133 C   0  0  0  0  0  0  0  0  0  0  0  0
    1.2421   -5.8336    3.3443 C   0  0  0  0  0  0  0  0  0  0  0  0
    2.2975   -4.5691    1.6576 O   0  0  0  0  0  0  0  0  0  0  0  0
   -1.1318   -1.1109    0.4031 O   0  0  0  0  0  0  0  0  0  0  0  0
   -0.6067   -4.5828   -5.8816 C   0  0  0  0  0  0  0  0  0  0  0  0
   -0.7681    0.1957    0.5674 C   0  0  0  0  0  0  0  0  0  0  0  0
   -0.3326   -4.4531   -7.0955 O   0  0  0  0  0  0  0  0  0  0  0  0
   -1.8068    1.1809    0.8933 C   0  0  0  0  0  0  0  0  0  0  0  0
    0.4248    0.5622    0.4412 O   0  0  0  0  0  0  0  0  0  0  0  0
   -0.0983   -6.3231   -1.5724 H   0  0  0  0  0  0  0  0  0  0  0  0
   -1.4693   -9.8687   -1.0899 H   0  0  0  0  0  0  0  0  0  0  0  0
   -0.0623   -8.7870   -1.1407 H   0  0  0  0  0  0  0  0  0  0  0  0
   -1.4673   -8.4776   -2.1858 H   0  0  0  0  0  0  0  0  0  0  0  0
   -2.7448   -5.1483   -1.7790 H   0  0  0  0  0  0  0  0  0  0  0  0
    0.8979   -4.4935   -0.5589 H   0  0  0  0  0  0  0  0  0  0  0  0
   -1.7507   -3.6462    0.7224 H   0  0  0  0  0  0  0  0  0  0  0  0
    0.4344   -2.2918    1.0325 H   0  0  0  0  0  0  0  0  0  0  0  0
    0.3836   -1.9782   -0.7157 H   0  0  0  0  0  0  0  0  0  0  0  0
   -1.8617   -6.1397   -6.1417 H   0  0  0  0  0  0  0  0  0  0  0  0
    0.6596   -3.0316   -5.1571 H   0  0  0  0  0  0  0  0  0  0  0  0
    1.4358   -5.0983    4.1260 H   0  0  0  0  0  0  0  0  0  0  0  0
    0.2658   -6.2880    3.5277 H   0  0  0  0  0  0  0  0  0  0  0  0
    2.0032   -6.6139    3.3852 H   0  0  0  0  0  0  0  0  0  0  0  0
   -1.3877    2.1865    0.9694 H   0  0  0  0  0  0  0  0  0  0  0  0
   -2.5733    1.1764    0.1175 H   0  0  0  0  0  0  0  0  0  0  0  0
   -2.2643    0.9194    1.8484 H   0  0  0  0  0  0  0  0  0  0  0  0
  1  2  1  0  0  0  0 
  2  4  1  0  0  0  0 
  2  5  2  0  0  0  0 
  3  1  1  0  0  0  0 
  3  6  1  0  0  0  0 
  3  7  1  0  0  0  0 
  6  8  1  0  0  0  0 
  6  9  1  0  0  0  0 
  7 10  1  0  0  0  0 
  7 11  1  0  0  0  0 
 11  8  1  0  0  0  0 
  9 12  1  0  0  0  0 
  9 13  1  0  0  0  0 
 10 14  1  0  0  0  0 
 11 15  1  0  0  0  0 
 12 16  2  0  0  0  0 
 12 17  1  0  0  0  0 
 13 18  2  0  0  0  0 
 14 19  1  0  0  0  0 
 14 20  2  0  0  0  0 
 15 21  1  0  0  0  0 
 17 22  1  0  0  0  0 
 18 22  1  0  0  0  0 
 21 23  1  0  0  0  0 
 22 24  2  0  0  0  0 
 23 25  1  0  0  0  0 
 23 26  2  0  0  0  0 
  3 27  1  0  0  0  0 
 28  4  1  0  0  0  0 
 29  4  1  0  0  0  0 
 30  4  1  0  0  0  0 
  6 31  1  0  0  0  0 
  7 32  1  0  0  0  0 
 11 33  1  0  0  0  0 
 34 15  1  0  0  0  0 
 35 15  1  0  0  0  0 
 36 17  1  0  0  0  0 
 37 18  1  0  0  0  0 
 38 19  1  0  0  0  0 
 39 19  1  0  0  0  0 
 40 19  1  0  0  0  0 
 41 25  1  0  0  0  0 
 42 25  1  0  0  0  0 
 43 25  1  0  0  0  0 
M  END
> <cdk:Title>
azaribine

> <Conformer>
3

> <SuperDrugID>
SD000010

$$$$
azaribine
  CDK     0628171801

 43 44  0  0  0  0  0  0  0  0999 V2000
   -2.1360   -6.4750   -0.2135 O   0  0  0  0  0  0  0  0  0  0  0  0
   -2.6461   -7.7399   -0.2317 C   0  0  0  0  0  0  0  0  0  0  0  0
   -1.0992   -5.9188   -1.0433 C   0  0  1  0  0  0  0  0  0  0  0  0
   -3.6156   -8.1312    0.7990 C   0  0  0  0  0  0  0  0  0  0  0  0
   -2.3185   -8.5689   -1.1116 O   0  0  0  0  0  0  0  0  0  0  0  0
   -1.6374   -4.7012   -1.8429 C   0  0  1  0  0  0  0  0  0  0  0  0
    0.0031   -5.3181   -0.1556 C   0  0  2  0  0  0  0  0  0  0  0  0
   -1.1475   -3.5170   -1.1907 O   0  0  0  0  0  0  0  0  0  0  0  0
   -1.2608   -4.7284   -3.2394 N   0  0  0  0  0  0  0  0  0  0  0  0
    0.1278   -6.0457    1.0784 O   0  0  0  0  0  0  0  0  0  0  0  0
   -0.5208   -3.8783    0.0441 C   0  0  2  0  0  0  0  0  0  0  0  0
   -1.8009   -5.6323   -4.1191 C   0  0  0  0  0  0  0  0  0  0  0  0
   -0.3860   -3.8503   -3.6869 N   0  0  0  0  0  0  0  0  0  0  0  0
    1.1256   -5.9963    2.0046 C   0  0  0  0  0  0  0  0  0  0  0  0
    0.5585   -2.8237    0.3839 C   0  0  1  0  0  0  0  0  0  0  0  0
   -2.6335   -6.5046   -3.7794 O   0  0  0  0  0  0  0  0  0  0  0  0
   -1.4327   -5.5938   -5.4241 N   0  0  0  0  0  0  0  0  0  0  0  0
    0.0088   -3.7627   -4.9801 C   0  0  0  0  0  0  0  0  0  0  0  0
    2.5448   -5.7797    1.6707 C   0  0  0  0  0  0  0  0  0  0  0  0
    0.7981   -6.2443    3.1857 O   0  0  0  0  0  0  0  0  0  0  0  0
   -0.0544   -1.5299    0.4429 O   0  0  0  0  0  0  0  0  0  0  0  0
   -0.5432   -4.6805   -5.8843 C   0  0  0  0  0  0  0  0  0  0  0  0
    0.5761   -0.3261    0.5612 C   0  0  0  0  0  0  0  0  0  0  0  0
   -0.2293   -4.6642   -7.0945 O   0  0  0  0  0  0  0  0  0  0  0  0
   -0.2306    0.8971    0.6678 C   0  0  0  0  0  0  0  0  0  0  0  0
    1.8262   -0.2346    0.5550 O   0  0  0  0  0  0  0  0  0  0  0  0
   -0.6656   -6.6833   -1.6958 H   0  0  0  0  0  0  0  0  0  0  0  0
   -4.5765   -8.3630    0.3400 H   0  0  0  0  0  0  0  0  0  0  0  0
   -3.7537   -7.3210    1.5173 H   0  0  0  0  0  0  0  0  0  0  0  0
   -3.2546   -9.0083    1.3376 H   0  0  0  0  0  0  0  0  0  0  0  0
   -2.7308   -4.6564   -1.7785 H   0  0  0  0  0  0  0  0  0  0  0  0
    0.9470   -5.3232   -0.7129 H   0  0  0  0  0  0  0  0  0  0  0  0
   -1.2821   -3.8731    0.8335 H   0  0  0  0  0  0  0  0  0  0  0  0
    1.0089   -3.0429    1.3529 H   0  0  0  0  0  0  0  0  0  0  0  0
    1.3338   -2.8360   -0.3873 H   0  0  0  0  0  0  0  0  0  0  0  0
   -1.8166   -6.2379   -6.0403 H   0  0  0  0  0  0  0  0  0  0  0  0
    0.6795   -3.0525   -5.2760 H   0  0  0  0  0  0  0  0  0  0  0  0
    3.1660   -5.8122    2.5693 H   0  0  0  0  0  0  0  0  0  0  0  0
    2.8753   -6.5656    0.9927 H   0  0  0  0  0  0  0  0  0  0  0  0
    2.6790   -4.8133    1.1886 H   0  0  0  0  0  0  0  0  0  0  0  0
   -1.2935    0.6565    0.7278 H   0  0  0  0  0  0  0  0  0  0  0  0
   -0.0665    1.5234   -0.2097 H   0  0  0  0  0  0  0  0  0  0  0  0
    0.0522    1.4543    1.5626 H   0  0  0  0  0  0  0  0  0  0  0  0
  1  2  1  0  0  0  0 
  2  4  1  0  0  0  0 
  2  5  2  0  0  0  0 
  3  1  1  0  0  0  0 
  3  6  1  0  0  0  0 
  3  7  1  0  0  0  0 
  6  8  1  0  0  0  0 
  6  9  1  0  0  0  0 
  7 10  1  0  0  0  0 
  7 11  1  0  0  0  0 
 11  8  1  0  0  0  0 
  9 12  1  0  0  0  0 
  9 13  1  0  0  0  0 
 10 14  1  0  0  0  0 
 11 15  1  0  0  0  0 
 12 16  2  0  0  0  0 
 12 17  1  0  0  0  0 
 13 18  2  0  0  0  0 
 14 19  1  0  0  0  0 
 14 20  2  0  0  0  0 
 15 21  1  0  0  0  0 
 17 22  1  0  0  0  0 
 18 22  1  0  0  0  0 
 21 23  1  0  0  0  0 
 22 24  2  0  0  0  0 
 23 25  1  0  0  0  0 
 23 26  2  0  0  0  0 
  3 27  1  0  0  0  0 
 28  4  1  0  0  0  0 
 29  4  1  0  0  0  0 
 30  4  1  0  0  0  0 
  6 31  1  0  0  0  0 
  7 32  1  0  0  0  0 
 11 33  1  0  0  0  0 
 34 15  1  0  0  0  0 
 35 15  1  0  0  0  0 
 36 17  1  0  0  0  0 
 37 18  1  0  0  0  0 
 38 19  1  0  0  0  0 
 39 19  1  0  0  0  0 
 40 19  1  0  0  0  0 
 41 25  1  0  0  0  0 
 42 25  1  0  0  0  0 
 43 25  1  0  0  0  0 
M  END
> <cdk:Title>
azaribine

> <Conformer>
4

> <SuperDrugID>
SD000010

$$$$
azaribine
  CDK     0628171801

 43 44  0  0  0  0  0  0  0  0999 V2000
   -2.1030   -6.5126   -0.2049 O   0  0  0  0  0  0  0  0  0  0  0  0
   -2.6556   -7.7573   -0.2964 C   0  0  0  0  0  0  0  0  0  0  0  0
   -1.0569   -5.9438   -1.0179 C   0  0  1  0  0  0  0  0  0  0  0  0
   -3.7114   -8.1461    0.6482 C   0  0  0  0  0  0  0  0  0  0  0  0
   -2.2974   -8.5738   -1.1765 O   0  0  0  0  0  0  0  0  0  0  0  0
   -1.6230   -4.7472   -1.8246 C   0  0  1  0  0  0  0  0  0  0  0  0
    0.0422   -5.3129   -0.1450 C   0  0  2  0  0  0  0  0  0  0  0  0
   -1.1637   -3.5457   -1.1842 O   0  0  0  0  0  0  0  0  0  0  0  0
   -1.2617   -4.7876   -3.2228 N   0  0  0  0  0  0  0  0  0  0  0  0
    0.1776   -6.0162    1.1012 O   0  0  0  0  0  0  0  0  0  0  0  0
   -0.5015   -3.8796    0.0401 C   0  0  2  0  0  0  0  0  0  0  0  0
   -1.8010   -5.7023   -4.0911 C   0  0  0  0  0  0  0  0  0  0  0  0
   -0.3955   -3.9105   -3.6837 N   0  0  0  0  0  0  0  0  0  0  0  0
    1.1528   -5.8912    2.0443 C   0  0  0  0  0  0  0  0  0  0  0  0
    0.5653   -2.8019    0.3267 C   0  0  1  0  0  0  0  0  0  0  0  0
   -2.6081   -6.5887   -3.7263 O   0  0  0  0  0  0  0  0  0  0  0  0
   -1.4685   -5.6576   -5.4057 N   0  0  0  0  0  0  0  0  0  0  0  0
   -0.0262   -3.8187   -4.9848 C   0  0  0  0  0  0  0  0  0  0  0  0
    2.5754   -5.7065    1.7107 C   0  0  0  0  0  0  0  0  0  0  0  0
    0.8053   -6.0468    3.2352 O   0  0  0  0  0  0  0  0  0  0  0  0
   -0.0806   -1.5264    0.3869 O   0  0  0  0  0  0  0  0  0  0  0  0
   -0.5980   -4.7352   -5.8813 C   0  0  0  0  0  0  0  0  0  0  0  0
    0.5265   -0.3121    0.4774 C   0  0  0  0  0  0  0  0  0  0  0  0
   -0.3178   -4.7128   -7.1005 O   0  0  0  0  0  0  0  0  0  0  0  0
   -0.3238    0.8781    0.6013 C   0  0  0  0  0  0  0  0  0  0  0  0
    1.7750   -0.2007    0.4484 O   0  0  0  0  0  0  0  0  0  0  0  0
   -0.6141   -6.6971   -1.6763 H   0  0  0  0  0  0  0  0  0  0  0  0
   -4.6418   -8.3267    0.1096 H   0  0  0  0  0  0  0  0  0  0  0  0
   -3.8820   -7.3587    1.3842 H   0  0  0  0  0  0  0  0  0  0  0  0
   -3.4198   -9.0594    1.1676 H   0  0  0  0  0  0  0  0  0  0  0  0
   -2.7152   -4.7267   -1.7589 H   0  0  0  0  0  0  0  0  0  0  0  0
    0.9861   -5.3126   -0.7043 H   0  0  0  0  0  0  0  0  0  0  0  0
   -1.2418   -3.8718    0.8477 H   0  0  0  0  0  0  0  0  0  0  0  0
    1.0525   -2.9962    1.2825 H   0  0  0  0  0  0  0  0  0  0  0  0
    1.3173   -2.8012   -0.4675 H   0  0  0  0  0  0  0  0  0  0  0  0
   -1.8660   -6.2963   -6.0195 H   0  0  0  0  0  0  0  0  0  0  0  0
    0.6453   -3.1122   -5.2890 H   0  0  0  0  0  0  0  0  0  0  0  0
    3.1837   -5.6690    2.6150 H   0  0  0  0  0  0  0  0  0  0  0  0
    2.9068   -6.5440    1.0987 H   0  0  0  0  0  0  0  0  0  0  0  0
    2.7244   -4.7828    1.1561 H   0  0  0  0  0  0  0  0  0  0  0  0
    0.2718    1.7930    0.5847 H   0  0  0  0  0  0  0  0  0  0  0  0
   -1.0402    0.9071   -0.2218 H   0  0  0  0  0  0  0  0  0  0  0  0
   -0.8691    0.8305    1.5446 H   0  0  0  0  0  0  0  0  0  0  0  0
  1  2  1  0  0  0  0 
  2  4  1  0  0  0  0 
  2  5  2  0  0  0  0 
  3  1  1  0  0  0  0 
  3  6  1  0  0  0  0 
  3  7  1  0  0  0  0 
  6  8  1  0  0  0  0 
  6  9  1  0  0  0  0 
  7 10  1  0  0  0  0 
  7 11  1  0  0  0  0 
 11  8  1  0  0  0  0 
  9 12  1  0  0  0  0 
  9 13  1  0  0  0  0 
 10 14  1  0  0  0  0 
 11 15  1  0  0  0  0 
 12 16  2  0  0  0  0 
 12 17  1  0  0  0  0 
 13 18  2  0  0  0  0 
 14 19  1  0  0  0  0 
 14 20  2  0  0  0  0 
 15 21  1  0  0  0  0 
 17 22  1  0  0  0  0 
 18 22  1  0  0  0  0 
 21 23  1  0  0  0  0 
 22 24  2  0  0  0  0 
 23 25  1  0  0  0  0 
 23 26  2  0  0  0  0 
  3 27  1  0  0  0  0 
 28  4  1  0  0  0  0 
 29  4  1  0  0  0  0 
 30  4  1  0  0  0  0 
  6 31  1  0  0  0  0 
  7 32  1  0  0  0  0 
 11 33  1  0  0  0  0 
 34 15  1  0  0  0  0 
 35 15  1  0  0  0  0 
 36 17  1  0  0  0  0 
 37 18  1  0  0  0  0 
 38 19  1  0  0  0  0 
 39 19  1  0  0  0  0 
 40 19  1  0  0  0  0 
 41 25  1  0  0  0  0 
 42 25  1  0  0  0  0 
 43 25  1  0  0  0  0 
M  END
> <cdk:Title>
azaribine

> <Conformer>
5

> <SuperDrugID>
SD000010

$$$$
azaribine
  CDK     0628171801

 43 44  0  0  0  0  0  0  0  0999 V2000
   -2.1298   -6.4808   -0.2210 O   0  0  0  0  0  0  0  0  0  0  0  0
   -2.6581   -7.7401   -0.2601 C   0  0  0  0  0  0  0  0  0  0  0  0
   -1.0799   -5.9267   -1.0407 C   0  0  1  0  0  0  0  0  0  0  0  0
   -3.6783   -8.1227    0.7271 C   0  0  0  0  0  0  0  0  0  0  0  0
   -2.2984   -8.5763   -1.1219 O   0  0  0  0  0  0  0  0  0  0  0  0
   -1.6267   -4.7279   -1.8610 C   0  0  1  0  0  0  0  0  0  0  0  0
    0.0223   -5.3015   -0.1635 C   0  0  2  0  0  0  0  0  0  0  0  0
   -1.1455   -3.5290   -1.2285 O   0  0  0  0  0  0  0  0  0  0  0  0
   -1.2628   -4.7793   -3.2616 N   0  0  0  0  0  0  0  0  0  0  0  0
    0.1516   -6.0001    1.0859 O   0  0  0  0  0  0  0  0  0  0  0  0
   -0.5137   -3.8640    0.0113 C   0  0  2  0  0  0  0  0  0  0  0  0
   -1.8007   -5.7015   -4.1254 C   0  0  0  0  0  0  0  0  0  0  0  0
   -0.3961   -3.9056   -3.7304 N   0  0  0  0  0  0  0  0  0  0  0  0
    1.1315   -5.8991    2.0279 C   0  0  0  0  0  0  0  0  0  0  0  0
    0.5579   -2.7954    0.3219 C   0  0  1  0  0  0  0  0  0  0  0  0
   -2.6243   -6.5703   -3.7559 O   0  0  0  0  0  0  0  0  0  0  0  0
   -1.4435   -5.6813   -5.4365 N   0  0  0  0  0  0  0  0  0  0  0  0
   -0.0030   -3.8404   -5.0256 C   0  0  0  0  0  0  0  0  0  0  0  0
    2.5569   -5.7084    1.7007 C   0  0  0  0  0  0  0  0  0  0  0  0
    0.7868   -6.0856    3.2168 O   0  0  0  0  0  0  0  0  0  0  0  0
   -0.0794   -1.5155    0.3785 O   0  0  0  0  0  0  0  0  0  0  0  0
   -0.5571   -4.7742   -5.9143 C   0  0  0  0  0  0  0  0  0  0  0  0
    0.5307   -0.2976    0.3933 C   0  0  0  0  0  0  0  0  0  0  0  0
   -0.2471   -4.7820   -7.1264 O   0  0  0  0  0  0  0  0  0  0  0  0
   -0.2980    0.9056    0.5371 C   0  0  0  0  0  0  0  0  0  0  0  0
    1.7708   -0.1845    0.2499 O   0  0  0  0  0  0  0  0  0  0  0  0
   -0.6475   -6.6913   -1.6920 H   0  0  0  0  0  0  0  0  0  0  0  0
   -4.6258   -8.3206    0.2257 H   0  0  0  0  0  0  0  0  0  0  0  0
   -3.8284   -7.3237    1.4553 H   0  0  0  0  0  0  0  0  0  0  0  0
   -3.3608   -9.0209    1.2590 H   0  0  0  0  0  0  0  0  0  0  0  0
   -2.7197   -4.6924   -1.7935 H   0  0  0  0  0  0  0  0  0  0  0  0
    0.9693   -5.3098   -0.7155 H   0  0  0  0  0  0  0  0  0  0  0  0
   -1.2735   -3.8475    0.8008 H   0  0  0  0  0  0  0  0  0  0  0  0
    1.0308   -2.9935    1.2848 H   0  0  0  0  0  0  0  0  0  0  0  0
    1.3209   -2.7994   -0.4609 H   0  0  0  0  0  0  0  0  0  0  0  0
   -1.8311   -6.3270   -6.0488 H   0  0  0  0  0  0  0  0  0  0  0  0
    0.6708   -3.1358   -5.3305 H   0  0  0  0  0  0  0  0  0  0  0  0
    3.1651   -5.6876    2.6070 H   0  0  0  0  0  0  0  0  0  0  0  0
    2.8959   -6.5323    1.0718 H   0  0  0  0  0  0  0  0  0  0  0  0
    2.7111   -4.7735    1.1647 H   0  0  0  0  0  0  0  0  0  0  0  0
   -1.2698    0.6472    0.9618 H   0  0  0  0  0  0  0  0  0  0  0  0
   -0.4496    1.3642   -0.4412 H   0  0  0  0  0  0  0  0  0  0  0  0
    0.1906    1.6217    1.2000 H   0  0  0  0  0  0  0  0  0  0  0  0
  1  2  1  0  0  0  0 
  2  4  1  0  0  0  0 
  2  5  2  0  0  0  0 
  3  1  1  0  0  0  0 
  3  6  1  0  0  0  0 
  3  7  1  0  0  0  0 
  6  8  1  0  0  0  0 
  6  9  1  0  0  0  0 
  7 10  1  0  0  0  0 
  7 11  1  0  0  0  0 
 11  8  1  0  0  0  0 
  9 12  1  0  0  0  0 
  9 13  1  0  0  0  0 
 10 14  1  0  0  0  0 
 11 15  1  0  0  0  0 
 12 16  2  0  0  0  0 
 12 17  1  0  0  0  0 
 13 18  2  0  0  0  0 
 14 19  1  0  0  0  0 
 14 20  2  0  0  0  0 
 15 21  1  0  0  0  0 
 17 22  1  0  0  0  0 
 18 22  1  0  0  0  0 
 21 23  1  0  0  0  0 
 22 24  2  0  0  0  0 
 23 25  1  0  0  0  0 
 23 26  2  0  0  0  0 
  3 27  1  0  0  0  0 
 28  4  1  0  0  0  0 
 29  4  1  0  0  0  0 
 30  4  1  0  0  0  0 
  6 31  1  0  0  0  0 
  7 32  1  0  0  0  0 
 11 33  1  0  0  0  0 
 34 15  1  0  0  0  0 
 35 15  1  0  0  0  0 
 36 17  1  0  0  0  0 
 37 18  1  0  0  0  0 
 38 19  1  0  0  0  0 
 39 19  1  0  0  0  0 
 40 19  1  0  0  0  0 
 41 25  1  0  0  0  0 
 42 25  1  0  0  0  0 
 43 25  1  0  0  0  0 
M  END
> <cdk:Title>
azaribine

> <Conformer>
6

> <SuperDrugID>
SD000010

$$$$
azaribine
  CDK     0628171801

 43 44  0  0  0  0  0  0  0  0999 V2000
   -1.6796   -6.5836   -0.1397 O   0  0  0  0  0  0  0  0  0  0  0  0
   -2.4102   -7.6597   -0.5516 C   0  0  0  0  0  0  0  0  0  0  0  0
   -0.8677   -5.7416   -0.9801 C   0  0  1  0  0  0  0  0  0  0  0  0
   -1.8101   -8.8343   -1.2102 C   0  0  0  0  0  0  0  0  0  0  0  0
   -3.6307   -7.6713   -0.2764 O   0  0  0  0  0  0  0  0  0  0  0  0
   -1.7355   -4.7442   -1.7935 C   0  0  1  0  0  0  0  0  0  0  0  0
    0.0423   -4.8258   -0.1426 C   0  0  2  0  0  0  0  0  0  0  0  0
   -1.6158   -3.4368   -1.2078 O   0  0  0  0  0  0  0  0  0  0  0  0
   -1.3663   -4.7088   -3.1888 N   0  0  0  0  0  0  0  0  0  0  0  0
    0.2953   -5.3845    1.1603 O   0  0  0  0  0  0  0  0  0  0  0  0
   -0.7250   -3.4781   -0.0908 C   0  0  2  0  0  0  0  0  0  0  0  0
   -1.8503   -5.6023   -4.1112 C   0  0  0  0  0  0  0  0  0  0  0  0
   -0.5121   -3.7875   -3.5841 N   0  0  0  0  0  0  0  0  0  0  0  0
    1.0752   -4.8336    2.1319 C   0  0  0  0  0  0  0  0  0  0  0  0
    0.1971   -2.2309   -0.1341 C   0  0  1  0  0  0  0  0  0  0  0  0
   -2.6590   -6.5145   -3.8198 O   0  0  0  0  0  0  0  0  0  0  0  0
   -1.4451   -5.5066   -5.4036 N   0  0  0  0  0  0  0  0  0  0  0  0
   -0.0760   -3.6441   -4.8574 C   0  0  0  0  0  0  0  0  0  0  0  0
    2.5344   -4.7247    1.9802 C   0  0  0  0  0  0  0  0  0  0  0  0
    0.5260   -4.4970    3.2051 O   0  0  0  0  0  0  0  0  0  0  0  0
   -0.5423   -1.0028   -0.0349 O   0  0  0  0  0  0  0  0  0  0  0  0
   -0.5709   -4.5503   -5.8080 C   0  0  0  0  0  0  0  0  0  0  0  0
    0.0095    0.2519   -0.0327 C   0  0  0  0  0  0  0  0  0  0  0  0
   -0.2171   -4.4863   -7.0058 O   0  0  0  0  0  0  0  0  0  0  0  0
   -0.8437    1.4423    0.0976 C   0  0  0  0  0  0  0  0  0  0  0  0
    1.2488    0.4163   -0.1311 O   0  0  0  0  0  0  0  0  0  0  0  0
   -0.2400   -6.3648   -1.6277 H   0  0  0  0  0  0  0  0  0  0  0  0
   -2.0597   -9.7365   -0.6493 H   0  0  0  0  0  0  0  0  0  0  0  0
   -0.7233   -8.7481   -1.2519 H   0  0  0  0  0  0  0  0  0  0  0  0
   -2.2022   -8.9293   -2.2245 H   0  0  0  0  0  0  0  0  0  0  0  0
   -2.7951   -5.0043   -1.7017 H   0  0  0  0  0  0  0  0  0  0  0  0
    0.9917   -4.7090   -0.6787 H   0  0  0  0  0  0  0  0  0  0  0  0
   -1.3362   -3.4406    0.8159 H   0  0  0  0  0  0  0  0  0  0  0  0
    0.9085   -2.2784    0.6924 H   0  0  0  0  0  0  0  0  0  0  0  0
    0.7533   -2.2306   -1.0746 H   0  0  0  0  0  0  0  0  0  0  0  0
   -1.7920   -6.1371   -6.0543 H   0  0  0  0  0  0  0  0  0  0  0  0
    0.5846   -2.9028   -5.1026 H   0  0  0  0  0  0  0  0  0  0  0  0
    2.9806   -4.2451    2.8532 H   0  0  0  0  0  0  0  0  0  0  0  0
    2.9674   -5.7196    1.8692 H   0  0  0  0  0  0  0  0  0  0  0  0
    2.7719   -4.1299    1.0990 H   0  0  0  0  0  0  0  0  0  0  0  0
   -1.8934    1.1585    0.1846 H   0  0  0  0  0  0  0  0  0  0  0  0
   -0.7242    2.0844   -0.7773 H   0  0  0  0  0  0  0  0  0  0  0  0
   -0.5576    2.0045    0.9885 H   0  0  0  0  0  0  0  0  0  0  0  0
  1  2  1  0  0  0  0 
  2  4  1  0  0  0  0 
  2  5  2  0  0  0  0 
  3  1  1  0  0  0  0 
  3  6  1  0  0  0  0 
  3  7  1  0  0  0  0 
  6  8  1  0  0  0  0 
  6  9  1  0  0  0  0 
  7 10  1  0  0  0  0 
  7 11  1  0  0  0  0 
 11  8  1  0  0  0  0 
  9 12  1  0  0  0  0 
  9 13  1  0  0  0  0 
 10 14  1  0  0  0  0 
 11 15  1  0  0  0  0 
 12 16  2  0  0  0  0 
 12 17  1  0  0  0  0 
 13 18  2  0  0  0  0 
 14 19  1  0  0  0  0 
 14 20  2  0  0  0  0 
 15 21  1  0  0  0  0 
 17 22  1  0  0  0  0 
 18 22  1  0  0  0  0 
 21 23  1  0  0  0  0 
 22 24  2  0  0  0  0 
 23 25  1  0  0  0  0 
 23 26  2  0  0  0  0 
  3 27  1  0  0  0  0 
 28  4  1  0  0  0  0 
 29  4  1  0  0  0  0 
 30  4  1  0  0  0  0 
  6 31  1  0  0  0  0 
  7 32  1  0  0  0  0 
 11 33  1  0  0  0  0 
 34 15  1  0  0  0  0 
 35 15  1  0  0  0  0 
 36 17  1  0  0  0  0 
 37 18  1  0  0  0  0 
 38 19  1  0  0  0  0 
 39 19  1  0  0  0  0 
 40 19  1  0  0  0  0 
 41 25  1  0  0  0  0 
 42 25  1  0  0  0  0 
 43 25  1  0  0  0  0 
M  END
> <cdk:Title>
azaribine

> <Conformer>
7

> <SuperDrugID>
SD000010

$$$$
azaribine
  CDK     0628171801

 43 44  0  0  0  0  0  0  0  0999 V2000
   -1.6829   -6.5942   -0.1519 O   0  0  0  0  0  0  0  0  0  0  0  0
   -2.4072   -7.6751   -0.5661 C   0  0  0  0  0  0  0  0  0  0  0  0
   -0.8753   -5.7488   -0.9928 C   0  0  1  0  0  0  0  0  0  0  0  0
   -1.7944   -8.8519   -1.2052 C   0  0  0  0  0  0  0  0  0  0  0  0
   -3.6304   -7.6926   -0.3034 O   0  0  0  0  0  0  0  0  0  0  0  0
   -1.7464   -4.7645   -1.8189 C   0  0  1  0  0  0  0  0  0  0  0  0
    0.0238   -4.8198   -0.1569 C   0  0  2  0  0  0  0  0  0  0  0  0
   -1.6367   -3.4520   -1.2431 O   0  0  0  0  0  0  0  0  0  0  0  0
   -1.3689   -4.7361   -3.2123 N   0  0  0  0  0  0  0  0  0  0  0  0
    0.2745   -5.3619    1.1541 O   0  0  0  0  0  0  0  0  0  0  0  0
   -0.7522   -3.4762   -0.1205 C   0  0  2  0  0  0  0  0  0  0  0  0
   -1.8402   -5.6407   -4.1313 C   0  0  0  0  0  0  0  0  0  0  0  0
   -0.5196   -3.8106   -3.6094 N   0  0  0  0  0  0  0  0  0  0  0  0
    1.0455   -4.7939    2.1228 C   0  0  0  0  0  0  0  0  0  0  0  0
    0.1650   -2.2246   -0.1712 C   0  0  1  0  0  0  0  0  0  0  0  0
   -2.6447   -6.5556   -3.8355 O   0  0  0  0  0  0  0  0  0  0  0  0
   -1.4269   -5.5539   -5.4220 N   0  0  0  0  0  0  0  0  0  0  0  0
   -0.0755   -3.6776   -4.8812 C   0  0  0  0  0  0  0  0  0  0  0  0
    2.5046   -4.6804    1.9817 C   0  0  0  0  0  0  0  0  0  0  0  0
    0.4868   -4.4411    3.1855 O   0  0  0  0  0  0  0  0  0  0  0  0
   -0.5760   -0.9954   -0.0870 O   0  0  0  0  0  0  0  0  0  0  0  0
   -0.5564   -4.5957   -5.8274 C   0  0  0  0  0  0  0  0  0  0  0  0
   -0.0255    0.2604   -0.0921 C   0  0  0  0  0  0  0  0  0  0  0  0
   -0.1936   -4.5392   -7.0230 O   0  0  0  0  0  0  0  0  0  0  0  0
   -0.9032    1.4347    0.0242 C   0  0  0  0  0  0  0  0  0  0  0  0
    1.2145    0.4281   -0.1815 O   0  0  0  0  0  0  0  0  0  0  0  0
   -0.2418   -6.3719   -1.6338 H   0  0  0  0  0  0  0  0  0  0  0  0
   -2.0411   -9.7492   -0.6347 H   0  0  0  0  0  0  0  0  0  0  0  0
   -0.7081   -8.7550   -1.2382 H   0  0  0  0  0  0  0  0  0  0  0  0
   -2.1769   -8.9601   -2.2214 H   0  0  0  0  0  0  0  0  0  0  0  0
   -2.8046   -5.0301   -1.7304 H   0  0  0  0  0  0  0  0  0  0  0  0
    0.9746   -4.7017   -0.6879 H   0  0  0  0  0  0  0  0  0  0  0  0
   -1.3695   -3.4344    0.7829 H   0  0  0  0  0  0  0  0  0  0  0  0
    0.8732   -2.2622    0.6596 H   0  0  0  0  0  0  0  0  0  0  0  0
    0.7269   -2.2289   -1.1098 H   0  0  0  0  0  0  0  0  0  0  0  0
   -1.7642   -6.1930   -6.0695 H   0  0  0  0  0  0  0  0  0  0  0  0
    0.5817   -2.9354   -5.1291 H   0  0  0  0  0  0  0  0  0  0  0  0
    2.9434   -4.1913    2.8538 H   0  0  0  0  0  0  0  0  0  0  0  0
    2.9426   -5.6751    1.8822 H   0  0  0  0  0  0  0  0  0  0  0  0
    2.7435   -4.0930    1.0956 H   0  0  0  0  0  0  0  0  0  0  0  0
   -0.3284    2.3637    0.0063 H   0  0  0  0  0  0  0  0  0  0  0  0
   -1.6123    1.4492   -0.8041 H   0  0  0  0  0  0  0  0  0  0  0  0
   -1.4512    1.3836    0.9652 H   0  0  0  0  0  0  0  0  0  0  0  0
  1  2  1  0  0  0  0 
  2  4  1  0  0  0  0 
  2  5  2  0  0  0  0 
  3  1  1  0  0  0  0 
  3  6  1  0  0  0  0 
  3  7  1  0  0  0  0 
  6  8  1  0  0  0  0 
  6  9  1  0  0  0  0 
  7 10  1  0  0  0  0 
  7 11  1  0  0  0  0 
 11  8  1  0  0  0  0 
  9 12  1  0  0  0  0 
  9 13  1  0  0  0  0 
 10 14  1  0  0  0  0 
 11 15  1  0  0  0  0 
 12 16  2  0  0  0  0 
 12 17  1  0  0  0  0 
 13 18  2  0  0  0  0 
 14 19  1  0  0  0  0 
 14 20  2  0  0  0  0 
 15 21  1  0  0  0  0 
 17 22  1  0  0  0  0 
 18 22  1  0  0  0  0 
 21 23  1  0  0  0  0 
 22 24  2  0  0  0  0 
 23 25  1  0  0  0  0 
 23 26  2  0  0  0  0 
  3 27  1  0  0  0  0 
 28  4  1  0  0  0  0 
 29  4  1  0  0  0  0 
 30  4  1  0  0  0  0 
  6 31  1  0  0  0  0 
  7 32  1  0  0  0  0 
 11 33  1  0  0  0  0 
 34 15  1  0  0  0  0 
 35 15  1  0  0  0  0 
 36 17  1  0  0  0  0 
 37 18  1  0  0  0  0 
 38 19  1  0  0  0  0 
 39 19  1  0  0  0  0 
 40 19  1  0  0  0  0 
 41 25  1  0  0  0  0 
 42 25  1  0  0  0  0 
 43 25  1  0  0  0  0 
M  END
> <cdk:Title>
azaribine

> <Conformer>
8

> <SuperDrugID>
SD000010

$$$$
azaribine
  CDK     0628171801

 43 44  0  0  0  0  0  0  0  0999 V2000
   -1.7562   -6.5624   -0.1900 O   0  0  0  0  0  0  0  0  0  0  0  0
   -2.5509   -7.6075   -0.5619 C   0  0  0  0  0  0  0  0  0  0  0  0
   -0.8924   -5.8058   -1.0570 C   0  0  1  0  0  0  0  0  0  0  0  0
   -2.0298   -8.8299   -1.1996 C   0  0  0  0  0  0  0  0  0  0  0  0
   -3.7635   -7.5461   -0.2594 O   0  0  0  0  0  0  0  0  0  0  0  0
   -1.6977   -4.7774   -1.8927 C   0  0  1  0  0  0  0  0  0  0  0  0
    0.0779   -4.9342   -0.2430 C   0  0  2  0  0  0  0  0  0  0  0  0
   -1.4910   -3.4686   -1.3375 O   0  0  0  0  0  0  0  0  0  0  0  0
   -1.3362   -4.7982   -3.2899 N   0  0  0  0  0  0  0  0  0  0  0  0
    0.2895   -5.4819    1.0711 O   0  0  0  0  0  0  0  0  0  0  0  0
   -0.5981   -3.5385   -0.2233 C   0  0  2  0  0  0  0  0  0  0  0  0
   -1.8812   -5.6810   -4.1865 C   0  0  0  0  0  0  0  0  0  0  0  0
   -0.4274   -3.9435   -3.7101 N   0  0  0  0  0  0  0  0  0  0  0  0
    1.1139   -4.9710    2.0269 C   0  0  0  0  0  0  0  0  0  0  0  0
    0.4024   -2.3571   -0.2986 C   0  0  1  0  0  0  0  0  0  0  0  0
   -2.7435   -6.5337   -3.8695 O   0  0  0  0  0  0  0  0  0  0  0  0
   -1.4788   -5.6430   -5.4828 N   0  0  0  0  0  0  0  0  0  0  0  0
    0.0104   -3.8604   -4.9883 C   0  0  0  0  0  0  0  0  0  0  0  0
    2.5762   -4.9527    1.8631 C   0  0  0  0  0  0  0  0  0  0  0  0
    0.5964   -4.5955    3.1033 O   0  0  0  0  0  0  0  0  0  0  0  0
   -0.2566   -1.0833   -0.2459 O   0  0  0  0  0  0  0  0  0  0  0  0
   -0.5485   -4.7545   -5.9125 C   0  0  0  0  0  0  0  0  0  0  0  0
    0.3700    0.1346   -0.2405 C   0  0  0  0  0  0  0  0  0  0  0  0
   -0.2007   -4.7400   -7.1149 O   0  0  0  0  0  0  0  0  0  0  0  0
   -0.4179    1.3715   -0.1461 C   0  0  0  0  0  0  0  0  0  0  0  0
    1.6199    0.2233   -0.2779 O   0  0  0  0  0  0  0  0  0  0  0  0
   -0.3136   -6.4885   -1.6888 H   0  0  0  0  0  0  0  0  0  0  0  0
   -2.3388   -9.7042   -0.6260 H   0  0  0  0  0  0  0  0  0  0  0  0
   -0.9403   -8.8221   -1.2467 H   0  0  0  0  0  0  0  0  0  0  0  0
   -2.4297   -8.9124   -2.2096 H   0  0  0  0  0  0  0  0  0  0  0  0
   -2.7711   -4.9655   -1.7889 H   0  0  0  0  0  0  0  0  0  0  0  0
    1.0315   -4.8994   -0.7793 H   0  0  0  0  0  0  0  0  0  0  0  0
   -1.1989   -3.4406    0.6855 H   0  0  0  0  0  0  0  0  0  0  0  0
    1.1023   -2.4223    0.5360 H   0  0  0  0  0  0  0  0  0  0  0  0
    0.9628   -2.4215   -1.2334 H   0  0  0  0  0  0  0  0  0  0  0  0
   -1.8675   -6.2663   -6.1148 H   0  0  0  0  0  0  0  0  0  0  0  0
    0.7176   -3.1706   -5.2525 H   0  0  0  0  0  0  0  0  0  0  0  0
    3.0529   -4.4772    2.7222 H   0  0  0  0  0  0  0  0  0  0  0  0
    2.9457   -5.9757    1.7781 H   0  0  0  0  0  0  0  0  0  0  0  0
    2.8478   -4.3974    0.9654 H   0  0  0  0  0  0  0  0  0  0  0  0
   -0.4502    1.6980    0.8948 H   0  0  0  0  0  0  0  0  0  0  0  0
   -1.4369    1.2059   -0.4994 H   0  0  0  0  0  0  0  0  0  0  0  0
    0.0368    2.1612   -0.7497 H   0  0  0  0  0  0  0  0  0  0  0  0
  1  2  1  0  0  0  0 
  2  4  1  0  0  0  0 
  2  5  2  0  0  0  0 
  3  1  1  0  0  0  0 
  3  6  1  0  0  0  0 
  3  7  1  0  0  0  0 
  6  8  1  0  0  0  0 
  6  9  1  0  0  0  0 
  7 10  1  0  0  0  0 
  7 11  1  0  0  0  0 
 11  8  1  0  0  0  0 
  9 12  1  0  0  0  0 
  9 13  1  0  0  0  0 
 10 14  1  0  0  0  0 
 11 15  1  0  0  0  0 
 12 16  2  0  0  0  0 
 12 17  1  0  0  0  0 
 13 18  2  0  0  0  0 
 14 19  1  0  0  0  0 
 14 20  2  0  0  0  0 
 15 21  1  0  0  0  0 
 17 22  1  0  0  0  0 
 18 22  1  0  0  0  0 
 21 23  1  0  0  0  0 
 22 24  2  0  0  0  0 
 23 25  1  0  0  0  0 
 23 26  2  0  0  0  0 
  3 27  1  0  0  0  0 
 28  4  1  0  0  0  0 
 29  4  1  0  0  0  0 
 30  4  1  0  0  0  0 
  6 31  1  0  0  0  0 
  7 32  1  0  0  0  0 
 11 33  1  0  0  0  0 
 34 15  1  0  0  0  0 
 35 15  1  0  0  0  0 
 36 17  1  0  0  0  0 
 37 18  1  0  0  0  0 
 38 19  1  0  0  0  0 
 39 19  1  0  0  0  0 
 40 19  1  0  0  0  0 
 41 25  1  0  0  0  0 
 42 25  1  0  0  0  0 
 43 25  1  0  0  0  0 
M  END
> <cdk:Title>
azaribine

> <Conformer>
9

> <SuperDrugID>
SD000010

$$$$
azaribine
  CDK     0628171801

 43 44  0  0  0  0  0  0  0  0999 V2000
   -1.6477   -6.6314   -0.1781 O   0  0  0  0  0  0  0  0  0  0  0  0
   -2.3697   -7.7175   -0.5827 C   0  0  0  0  0  0  0  0  0  0  0  0
   -0.8419   -5.7911   -1.0254 C   0  0  1  0  0  0  0  0  0  0  0  0
   -1.7585   -8.8911   -1.2330 C   0  0  0  0  0  0  0  0  0  0  0  0
   -3.5897   -7.7413   -0.3026 O   0  0  0  0  0  0  0  0  0  0  0  0
   -1.7171   -4.8075   -1.8467 C   0  0  1  0  0  0  0  0  0  0  0  0
    0.0611   -4.8630   -0.1945 C   0  0  2  0  0  0  0  0  0  0  0  0
   -1.6095   -3.4963   -1.2677 O   0  0  0  0  0  0  0  0  0  0  0  0
   -1.3481   -4.7769   -3.2421 N   0  0  0  0  0  0  0  0  0  0  0  0
    0.3147   -5.4122    1.1128 O   0  0  0  0  0  0  0  0  0  0  0  0
   -0.7164   -3.5207   -0.1512 C   0  0  2  0  0  0  0  0  0  0  0  0
   -1.8250   -5.6805   -4.1587 C   0  0  0  0  0  0  0  0  0  0  0  0
   -0.5020   -3.8491   -3.6410 N   0  0  0  0  0  0  0  0  0  0  0  0
    1.0886   -4.8509    2.0828 C   0  0  0  0  0  0  0  0  0  0  0  0
    0.1959   -2.2654   -0.1995 C   0  0  1  0  0  0  0  0  0  0  0  0
   -2.6271   -6.5972   -3.8609 O   0  0  0  0  0  0  0  0  0  0  0  0
   -1.4186   -5.5895   -5.4512 N   0  0  0  0  0  0  0  0  0  0  0  0
   -0.0667   -3.7122   -4.9154 C   0  0  0  0  0  0  0  0  0  0  0  0
    2.5464   -4.7306    1.9315 C   0  0  0  0  0  0  0  0  0  0  0  0
    0.5344   -4.5183    3.1552 O   0  0  0  0  0  0  0  0  0  0  0  0
   -0.5530   -1.0418   -0.1037 O   0  0  0  0  0  0  0  0  0  0  0  0
   -0.5519   -4.6292   -5.8592 C   0  0  0  0  0  0  0  0  0  0  0  0
   -0.0103    0.2168   -0.1099 C   0  0  0  0  0  0  0  0  0  0  0  0
   -0.1960   -4.5720   -7.0586 O   0  0  0  0  0  0  0  0  0  0  0  0
   -0.8826    1.3942    0.0112 C   0  0  0  0  0  0  0  0  0  0  0  0
    1.2267    0.3912   -0.2217 O   0  0  0  0  0  0  0  0  0  0  0  0
   -0.2106   -6.4153   -1.6681 H   0  0  0  0  0  0  0  0  0  0  0  0
   -2.0034   -9.7939   -0.6720 H   0  0  0  0  0  0  0  0  0  0  0  0
   -0.6728   -8.7984   -1.2715 H   0  0  0  0  0  0  0  0  0  0  0  0
   -2.1445   -8.9920   -2.2479 H   0  0  0  0  0  0  0  0  0  0  0  0
   -2.7739   -5.0774   -1.7523 H   0  0  0  0  0  0  0  0  0  0  0  0
    1.0104   -4.7413   -0.7304 H   0  0  0  0  0  0  0  0  0  0  0  0
   -1.3267   -3.4841    0.7569 H   0  0  0  0  0  0  0  0  0  0  0  0
    0.9087   -2.3049    0.6276 H   0  0  0  0  0  0  0  0  0  0  0  0
    0.7512   -2.2646   -1.1411 H   0  0  0  0  0  0  0  0  0  0  0  0
   -1.7603   -6.2271   -6.0970 H   0  0  0  0  0  0  0  0  0  0  0  0
    0.5868   -2.9667   -5.1654 H   0  0  0  0  0  0  0  0  0  0  0  0
    2.9882   -4.2378    2.7984 H   0  0  0  0  0  0  0  0  0  0  0  0
    2.9862   -5.7232    1.8317 H   0  0  0  0  0  0  0  0  0  0  0  0
    2.7805   -4.1447    1.0438 H   0  0  0  0  0  0  0  0  0  0  0  0
   -1.7688    1.1496    0.5984 H   0  0  0  0  0  0  0  0  0  0  0  0
   -1.1917    1.7243   -0.9815 H   0  0  0  0  0  0  0  0  0  0  0  0
   -0.3560    2.2135    0.5061 H   0  0  0  0  0  0  0  0  0  0  0  0
  1  2  1  0  0  0  0 
  2  4  1  0  0  0  0 
  2  5  2  0  0  0  0 
  3  1  1  0  0  0  0 
  3  6  1  0  0  0  0 
  3  7  1  0  0  0  0 
  6  8  1  0  0  0  0 
  6  9  1  0  0  0  0 
  7 10  1  0  0  0  0 
  7 11  1  0  0  0  0 
 11  8  1  0  0  0  0 
  9 12  1  0  0  0  0 
  9 13  1  0  0  0  0 
 10 14  1  0  0  0  0 
 11 15  1  0  0  0  0 
 12 16  2  0  0  0  0 
 12 17  1  0  0  0  0 
 13 18  2  0  0  0  0 
 14 19  1  0  0  0  0 
 14 20  2  0  0  0  0 
 15 21  1  0  0  0  0 
 17 22  1  0  0  0  0 
 18 22  1  0  0  0  0 
 21 23  1  0  0  0  0 
 22 24  2  0  0  0  0 
 23 25  1  0  0  0  0 
 23 26  2  0  0  0  0 
  3 27  1  0  0  0  0 
 28  4  1  0  0  0  0 
 29  4  1  0  0  0  0 
 30  4  1  0  0  0  0 
  6 31  1  0  0  0  0 
  7 32  1  0  0  0  0 
 11 33  1  0  0  0  0 
 34 15  1  0  0  0  0 
 35 15  1  0  0  0  0 
 36 17  1  0  0  0  0 
 37 18  1  0  0  0  0 
 38 19  1  0  0  0  0 
 39 19  1  0  0  0  0 
 40 19  1  0  0  0  0 
 41 25  1  0  0  0  0 
 42 25  1  0  0  0  0 
 43 25  1  0  0  0  0 
M  END
> <cdk:Title>
azaribine

> <Conformer>
10

> <SuperDrugID>
SD000010

$$$$
