levobupivacaine
  CDK     0628171802

 49 50  0  0  0  0  0  0  0  0999 V2000
   -0.0089    1.9314    0.6540 C   0  0  0  0  0  0  0  0  0  0  0  0
   -0.0571    1.4152   -0.6103 N   0  0  0  0  0  0  0  0  0  0  0  0
   -0.8858    2.7325    1.0593 O   0  0  0  0  0  0  0  0  0  0  0  0
    1.0361    1.5043    1.6259 C   0  0  1  0  0  0  0  0  0  0  0  0
   -1.0859    1.5888   -1.4854 C   0  0  0  0  0  0  0  0  0  0  0  0
    0.4874    0.6598    2.7541 N   0  0  1  0  0  0  0  0  0  0  0  0
    2.2794    0.8103    0.9872 C   0  0  1  0  0  0  0  0  0  0  0  0
   -1.9190    0.4670   -1.7659 C   0  0  0  0  0  0  0  0  0  0  0  0
   -1.3540    2.8522   -2.0891 C   0  0  0  0  0  0  0  0  0  0  0  0
   -0.2733   -0.5797    2.3552 C   0  0  1  0  0  0  0  0  0  0  0  0
    1.5214    0.4462    3.8242 C   0  0  1  0  0  0  0  0  0  0  0  0
    3.3763    0.5479    2.0511 C   0  0  2  0  0  0  0  0  0  0  0  0
   -1.6228   -0.9152   -1.2910 C   0  0  0  0  0  0  0  0  0  0  0  0
   -3.0969    0.6660   -2.5203 C   0  0  0  0  0  0  0  0  0  0  0  0
   -0.4536    4.0326   -1.9795 C   0  0  0  0  0  0  0  0  0  0  0  0
   -2.5318    3.0047   -2.8547 C   0  0  0  0  0  0  0  0  0  0  0  0
   -1.2368   -1.1539    3.4307 C   0  0  1  0  0  0  0  0  0  0  0  0
    2.8228   -0.2109    3.2856 C   0  0  2  0  0  0  0  0  0  0  0  0
   -3.4044    1.9256   -3.0570 C   0  0  0  0  0  0  0  0  0  0  0  0
   -2.2815   -0.1274    3.9469 C   0  0  1  0  0  0  0  0  0  0  0  0
   -3.2736   -0.7342    4.9653 C   0  0  0  0  0  0  0  0  0  0  0  0
    0.6424    0.7985   -0.8682 H   0  0  0  0  0  0  0  0  0  0  0  0
    1.3983    2.4443    2.0581 H   0  0  0  0  0  0  0  0  0  0  0  0
    1.9892   -0.1409    0.5358 H   0  0  0  0  0  0  0  0  0  0  0  0
    2.6968    1.4404    0.1981 H   0  0  0  0  0  0  0  0  0  0  0  0
   -0.8998   -0.3682    1.4910 H   0  0  0  0  0  0  0  0  0  0  0  0
    0.4170   -1.3682    2.0486 H   0  0  0  0  0  0  0  0  0  0  0  0
    1.7741    1.4180    4.2577 H   0  0  0  0  0  0  0  0  0  0  0  0
    1.1287   -0.1599    4.6428 H   0  0  0  0  0  0  0  0  0  0  0  0
    3.7927    1.5052    2.3770 H   0  0  0  0  0  0  0  0  0  0  0  0
    4.1883   -0.0300    1.5996 H   0  0  0  0  0  0  0  0  0  0  0  0
   -2.3315   -1.2000   -0.5113 H   0  0  0  0  0  0  0  0  0  0  0  0
   -0.6142   -1.0150   -0.8888 H   0  0  0  0  0  0  0  0  0  0  0  0
   -1.7070   -1.6286   -2.1142 H   0  0  0  0  0  0  0  0  0  0  0  0
   -3.7437   -0.1101   -2.6861 H   0  0  0  0  0  0  0  0  0  0  0  0
    0.4892    3.7993   -1.4879 H   0  0  0  0  0  0  0  0  0  0  0  0
   -0.2066    4.4119   -2.9763 H   0  0  0  0  0  0  0  0  0  0  0  0
   -0.9508    4.8235   -1.4125 H   0  0  0  0  0  0  0  0  0  0  0  0
   -2.7639    3.9088   -3.2760 H   0  0  0  0  0  0  0  0  0  0  0  0
   -1.7668   -2.0014    2.9873 H   0  0  0  0  0  0  0  0  0  0  0  0
   -0.6606   -1.5409    4.2704 H   0  0  0  0  0  0  0  0  0  0  0  0
    2.6252   -1.2507    3.0109 H   0  0  0  0  0  0  0  0  0  0  0  0
    3.5806   -0.2175    4.0748 H   0  0  0  0  0  0  0  0  0  0  0  0
   -4.2603    2.0583   -3.6016 H   0  0  0  0  0  0  0  0  0  0  0  0
   -1.7628    0.7081    4.4254 H   0  0  0  0  0  0  0  0  0  0  0  0
   -2.8486    0.2690    3.0997 H   0  0  0  0  0  0  0  0  0  0  0  0
   -3.9780    0.0330    5.2933 H   0  0  0  0  0  0  0  0  0  0  0  0
   -2.7384   -1.1120    5.8385 H   0  0  0  0  0  0  0  0  0  0  0  0
   -3.8364   -1.5520    4.5105 H   0  0  0  0  0  0  0  0  0  0  0  0
  1  2  1  0  0  0  0 
  1  3  2  0  0  0  0 
  2  5  1  0  0  0  0 
  4  1  1  0  0  0  0 
  4  6  1  0  0  0  0 
  4  7  1  0  0  0  0 
  5  8  2  0  0  0  0 
  5  9  1  0  0  0  0 
  6 10  1  0  0  0  0 
  6 11  1  0  0  0  0 
  7 12  1  0  0  0  0 
  8 13  1  0  0  0  0 
  8 14  1  0  0  0  0 
  9 15  1  0  0  0  0 
  9 16  2  0  0  0  0 
 10 17  1  0  0  0  0 
 11 18  1  0  0  0  0 
 12 18  1  0  0  0  0 
 14 19  2  0  0  0  0 
 16 19  1  0  0  0  0 
 17 20  1  0  0  0  0 
 20 21  1  0  0  0  0 
  2 22  1  0  0  0  0 
  4 23  1  0  0  0  0 
  7 24  1  0  0  0  0 
  7 25  1  0  0  0  0 
 10 26  1  0  0  0  0 
 10 27  1  0  0  0  0 
 11 28  1  0  0  0  0 
 11 29  1  0  0  0  0 
 12 30  1  0  0  0  0 
 12 31  1  0  0  0  0 
 13 32  1  0  0  0  0 
 13 33  1  0  0  0  0 
 13 34  1  0  0  0  0 
 14 35  1  0  0  0  0 
 15 36  1  0  0  0  0 
 15 37  1  0  0  0  0 
 15 38  1  0  0  0  0 
 16 39  1  0  0  0  0 
 17 40  1  0  0  0  0 
 17 41  1  0  0  0  0 
 18 42  1  0  0  0  0 
 18 43  1  0  0  0  0 
 19 44  1  0  0  0  0 
 20 45  1  0  0  0  0 
 20 46  1  0  0  0  0 
 21 47  1  0  0  0  0 
 21 48  1  0  0  0  0 
 21 49  1  0  0  0  0 
M  END
> <cdk:Title>
levobupivacaine

> <Conformer>
1

> <SuperDrugID>
SD000001

$$$$
levobupivacaine
  CDK     0628171802

 49 50  0  0  0  0  0  0  0  0999 V2000
   -0.1412    2.1243    0.7014 C   0  0  0  0  0  0  0  0  0  0  0  0
   -0.0984    1.4279   -0.4716 N   0  0  0  0  0  0  0  0  0  0  0  0
   -0.9819    3.0383    0.8838 O   0  0  0  0  0  0  0  0  0  0  0  0
    0.7222    1.7454    1.8533 C   0  0  1  0  0  0  0  0  0  0  0  0
   -0.9968    1.5455   -1.4887 C   0  0  0  0  0  0  0  0  0  0  0  0
   -0.0533    1.0327    2.9427 N   0  0  1  0  0  0  0  0  0  0  0  0
    2.0102    0.9416    1.4750 C   0  0  1  0  0  0  0  0  0  0  0  0
   -1.8248    0.4222   -1.7819 C   0  0  0  0  0  0  0  0  0  0  0  0
   -1.1405    2.7556   -2.2295 C   0  0  0  0  0  0  0  0  0  0  0  0
   -0.7907   -0.2076    2.4963 C   0  0  1  0  0  0  0  0  0  0  0  0
    0.7959    0.8798    4.1723 C   0  0  1  0  0  0  0  0  0  0  0  0
    2.8976    0.6786    2.7209 C   0  0  2  0  0  0  0  0  0  0  0  0
   -1.6665   -0.9168   -1.1488 C   0  0  0  0  0  0  0  0  0  0  0  0
   -2.8705    0.5733   -2.7204 C   0  0  0  0  0  0  0  0  0  0  0  0
   -0.2212    3.9184   -2.1042 C   0  0  0  0  0  0  0  0  0  0  0  0
   -2.1994    2.8648   -3.1587 C   0  0  0  0  0  0  0  0  0  0  0  0
   -1.7714   -0.8484    3.5134 C   0  0  1  0  0  0  0  0  0  0  0  0
    2.0956    0.0744    3.9036 C   0  0  2  0  0  0  0  0  0  0  0  0
   -3.0657    1.7878   -3.3938 C   0  0  0  0  0  0  0  0  0  0  0  0
   -2.6289   -1.9811    2.8790 C   0  0  1  0  0  0  0  0  0  0  0  0
   -3.6157   -2.6328    3.8730 C   0  0  0  0  0  0  0  0  0  0  0  0
    0.5591    0.7220   -0.5459 H   0  0  0  0  0  0  0  0  0  0  0  0
    1.0750    2.7038    2.2578 H   0  0  0  0  0  0  0  0  0  0  0  0
    1.7446   -0.0193    1.0280 H   0  0  0  0  0  0  0  0  0  0  0  0
    2.5937    1.4990    0.7364 H   0  0  0  0  0  0  0  0  0  0  0  0
   -1.4004    0.0613    1.6354 H   0  0  0  0  0  0  0  0  0  0  0  0
   -0.0861   -0.9740    2.1711 H   0  0  0  0  0  0  0  0  0  0  0  0
    1.0717    1.8732    4.5383 H   0  0  0  0  0  0  0  0  0  0  0  0
    0.2366    0.4129    4.9822 H   0  0  0  0  0  0  0  0  0  0  0  0
    3.3483    1.6225    3.0390 H   0  0  0  0  0  0  0  0  0  0  0  0
    3.7100   -0.0029    2.4515 H   0  0  0  0  0  0  0  0  0  0  0  0
   -2.5540   -1.1501   -0.5600 H   0  0  0  0  0  0  0  0  0  0  0  0
   -0.7974   -0.9823   -0.4974 H   0  0  0  0  0  0  0  0  0  0  0  0
   -1.5485   -1.6780   -1.9208 H   0  0  0  0  0  0  0  0  0  0  0  0
   -3.5018   -0.2071   -2.9207 H   0  0  0  0  0  0  0  0  0  0  0  0
    0.6644    3.6880   -1.5132 H   0  0  0  0  0  0  0  0  0  0  0  0
    0.1231    4.2322   -3.0920 H   0  0  0  0  0  0  0  0  0  0  0  0
   -0.7442    4.7528   -1.6376 H   0  0  0  0  0  0  0  0  0  0  0  0
   -2.3418    3.7335   -3.6816 H   0  0  0  0  0  0  0  0  0  0  0  0
   -1.2030   -1.2752    4.3415 H   0  0  0  0  0  0  0  0  0  0  0  0
   -2.4296   -0.0694    3.9056 H   0  0  0  0  0  0  0  0  0  0  0  0
    1.8379   -0.9637    3.6777 H   0  0  0  0  0  0  0  0  0  0  0  0
    2.7188    0.0716    4.8028 H   0  0  0  0  0  0  0  0  0  0  0  0
   -3.8321    1.8850   -4.0624 H   0  0  0  0  0  0  0  0  0  0  0  0
   -3.2022   -1.5767    2.0415 H   0  0  0  0  0  0  0  0  0  0  0  0
   -1.9678   -2.7599    2.4899 H   0  0  0  0  0  0  0  0  0  0  0  0
   -4.1508   -3.4484    3.3827 H   0  0  0  0  0  0  0  0  0  0  0  0
   -4.3459   -1.9008    4.2209 H   0  0  0  0  0  0  0  0  0  0  0  0
   -3.0805   -3.0390    4.7328 H   0  0  0  0  0  0  0  0  0  0  0  0
  1  2  1  0  0  0  0 
  1  3  2  0  0  0  0 
  2  5  1  0  0  0  0 
  4  1  1  0  0  0  0 
  4  6  1  0  0  0  0 
  4  7  1  0  0  0  0 
  5  8  2  0  0  0  0 
  5  9  1  0  0  0  0 
  6 10  1  0  0  0  0 
  6 11  1  0  0  0  0 
  7 12  1  0  0  0  0 
  8 13  1  0  0  0  0 
  8 14  1  0  0  0  0 
  9 15  1  0  0  0  0 
  9 16  2  0  0  0  0 
 10 17  1  0  0  0  0 
 11 18  1  0  0  0  0 
 12 18  1  0  0  0  0 
 14 19  2  0  0  0  0 
 16 19  1  0  0  0  0 
 17 20  1  0  0  0  0 
 20 21  1  0  0  0  0 
  2 22  1  0  0  0  0 
  4 23  1  0  0  0  0 
  7 24  1  0  0  0  0 
  7 25  1  0  0  0  0 
 10 26  1  0  0  0  0 
 10 27  1  0  0  0  0 
 11 28  1  0  0  0  0 
 11 29  1  0  0  0  0 
 12 30  1  0  0  0  0 
 12 31  1  0  0  0  0 
 13 32  1  0  0  0  0 
 13 33  1  0  0  0  0 
 13 34  1  0  0  0  0 
 14 35  1  0  0  0  0 
 15 36  1  0  0  0  0 
 15 37  1  0  0  0  0 
 15 38  1  0  0  0  0 
 16 39  1  0  0  0  0 
 17 40  1  0  0  0  0 
 17 41  1  0  0  0  0 
 18 42  1  0  0  0  0 
 18 43  1  0  0  0  0 
 19 44  1  0  0  0  0 
 20 45  1  0  0  0  0 
 20 46  1  0  0  0  0 
 21 47  1  0  0  0  0 
 21 48  1  0  0  0  0 
 21 49  1  0  0  0  0 
M  END
> <cdk:Title>
levobupivacaine

> <Conformer>
2

> <SuperDrugID>
SD000001

$$$$
levobupivacaine
  CDK     0628171802

 49 50  0  0  0  0  0  0  0  0999 V2000
   -0.1406    2.0457    0.7140 C   0  0  0  0  0  0  0  0  0  0  0  0
   -0.1467    1.3567   -0.4570 N   0  0  0  0  0  0  0  0  0  0  0  0
   -0.8648    3.0606    0.8557 O   0  0  0  0  0  0  0  0  0  0  0  0
    0.8094    1.6990    1.8137 C   0  0  1  0  0  0  0  0  0  0  0  0
   -0.9324    1.5050   -1.5712 C   0  0  0  0  0  0  0  0  0  0  0  0
    0.8456    0.2637    2.3191 N   0  0  1  0  0  0  0  0  0  0  0  0
    2.2414    2.2200    1.4800 C   0  0  1  0  0  0  0  0  0  0  0  0
   -2.3354    1.7906   -1.5583 C   0  0  0  0  0  0  0  0  0  0  0  0
   -0.2596    1.3196   -2.8154 C   0  0  0  0  0  0  0  0  0  0  0  0
    1.1267   -0.8234    1.3053 C   0  0  1  0  0  0  0  0  0  0  0  0
    1.6814    0.1969    3.5702 C   0  0  1  0  0  0  0  0  0  0  0  0
    3.1963    2.0675    2.6958 C   0  0  2  0  0  0  0  0  0  0  0  0
   -3.1892    1.8043   -0.3390 C   0  0  0  0  0  0  0  0  0  0  0  0
   -2.9928    2.0392   -2.7852 C   0  0  0  0  0  0  0  0  0  0  0  0
    1.1703    0.9058   -2.8855 C   0  0  0  0  0  0  0  0  0  0  0  0
   -0.9666    1.5377   -4.0185 C   0  0  0  0  0  0  0  0  0  0  0  0
    1.1999   -2.3025    1.7847 C   0  0  1  0  0  0  0  0  0  0  0  0
    3.1439    0.6523    3.3272 C   0  0  2  0  0  0  0  0  0  0  0  0
   -2.3159    1.9142   -4.0052 C   0  0  0  0  0  0  0  0  0  0  0  0
   -0.1170   -2.8122    2.4310 C   0  0  1  0  0  0  0  0  0  0  0  0
   -0.0747   -4.3194    2.7681 C   0  0  0  0  0  0  0  0  0  0  0  0
    0.5577    0.6997   -0.5450 H   0  0  0  0  0  0  0  0  0  0  0  0
    0.4644    2.3018    2.6639 H   0  0  0  0  0  0  0  0  0  0  0  0
    2.6481    1.6744    0.6257 H   0  0  0  0  0  0  0  0  0  0  0  0
    2.2017    3.2784    1.2042 H   0  0  0  0  0  0  0  0  0  0  0  0
    0.3251   -0.8282    0.5700 H   0  0  0  0  0  0  0  0  0  0  0  0
    2.0559   -0.6114    0.7707 H   0  0  0  0  0  0  0  0  0  0  0  0
    1.2372    0.8393    4.3352 H   0  0  0  0  0  0  0  0  0  0  0  0
    1.6850   -0.8003    4.0060 H   0  0  0  0  0  0  0  0  0  0  0  0
    2.9242    2.8041    3.4589 H   0  0  0  0  0  0  0  0  0  0  0  0
    4.2220    2.2821    2.3810 H   0  0  0  0  0  0  0  0  0  0  0  0
   -3.3813    2.8357   -0.0340 H   0  0  0  0  0  0  0  0  0  0  0  0
   -2.7333    1.2572    0.4861 H   0  0  0  0  0  0  0  0  0  0  0  0
   -4.1486    1.3205   -0.5387 H   0  0  0  0  0  0  0  0  0  0  0  0
   -3.9836    2.2990   -2.8014 H   0  0  0  0  0  0  0  0  0  0  0  0
    1.2852   -0.0735   -2.4179 H   0  0  0  0  0  0  0  0  0  0  0  0
    1.5332    0.8312   -3.9125 H   0  0  0  0  0  0  0  0  0  0  0  0
    1.8006    1.6253   -2.3584 H   0  0  0  0  0  0  0  0  0  0  0  0
   -0.5035    1.4287   -4.9230 H   0  0  0  0  0  0  0  0  0  0  0  0
    1.4195   -2.9250    0.9119 H   0  0  0  0  0  0  0  0  0  0  0  0
    2.0342   -2.4365    2.4761 H   0  0  0  0  0  0  0  0  0  0  0  0
    3.6421   -0.0621    2.6670 H   0  0  0  0  0  0  0  0  0  0  0  0
    3.6845    0.6599    4.2775 H   0  0  0  0  0  0  0  0  0  0  0  0
   -2.8057    2.0911   -4.8856 H   0  0  0  0  0  0  0  0  0  0  0  0
   -0.3109   -2.2501    3.3471 H   0  0  0  0  0  0  0  0  0  0  0  0
   -0.9494   -2.6425    1.7436 H   0  0  0  0  0  0  0  0  0  0  0  0
   -1.0193   -4.6259    3.2211 H   0  0  0  0  0  0  0  0  0  0  0  0
    0.7333   -4.5295    3.4705 H   0  0  0  0  0  0  0  0  0  0  0  0
    0.0795   -4.9077    1.8614 H   0  0  0  0  0  0  0  0  0  0  0  0
  1  2  1  0  0  0  0 
  1  3  2  0  0  0  0 
  2  5  1  0  0  0  0 
  4  1  1  0  0  0  0 
  4  6  1  0  0  0  0 
  4  7  1  0  0  0  0 
  5  8  2  0  0  0  0 
  5  9  1  0  0  0  0 
  6 10  1  0  0  0  0 
  6 11  1  0  0  0  0 
  7 12  1  0  0  0  0 
  8 13  1  0  0  0  0 
  8 14  1  0  0  0  0 
  9 15  1  0  0  0  0 
  9 16  2  0  0  0  0 
 10 17  1  0  0  0  0 
 11 18  1  0  0  0  0 
 12 18  1  0  0  0  0 
 14 19  2  0  0  0  0 
 16 19  1  0  0  0  0 
 17 20  1  0  0  0  0 
 20 21  1  0  0  0  0 
  2 22  1  0  0  0  0 
  4 23  1  0  0  0  0 
  7 24  1  0  0  0  0 
  7 25  1  0  0  0  0 
 10 26  1  0  0  0  0 
 10 27  1  0  0  0  0 
 11 28  1  0  0  0  0 
 11 29  1  0  0  0  0 
 12 30  1  0  0  0  0 
 12 31  1  0  0  0  0 
 13 32  1  0  0  0  0 
 13 33  1  0  0  0  0 
 13 34  1  0  0  0  0 
 14 35  1  0  0  0  0 
 15 36  1  0  0  0  0 
 15 37  1  0  0  0  0 
 15 38  1  0  0  0  0 
 16 39  1  0  0  0  0 
 17 40  1  0  0  0  0 
 17 41  1  0  0  0  0 
 18 42  1  0  0  0  0 
 18 43  1  0  0  0  0 
 19 44  1  0  0  0  0 
 20 45  1  0  0  0  0 
 20 46  1  0  0  0  0 
 21 47  1  0  0  0  0 
 21 48  1  0  0  0  0 
 21 49  1  0  0  0  0 
M  END
> <cdk:Title>
levobupivacaine

> <Conformer>
3

> <SuperDrugID>
SD000001

$$$$
levobupivacaine
  CDK     0628171802

 49 50  0  0  0  0  0  0  0  0999 V2000
   -0.1933    2.0782    0.7411 C   0  0  0  0  0  0  0  0  0  0  0  0
   -0.1710    1.3963   -0.4400 N   0  0  0  0  0  0  0  0  0  0  0  0
   -0.9232    3.0882    0.8709 O   0  0  0  0  0  0  0  0  0  0  0  0
    0.7371    1.7642    1.8687 C   0  0  1  0  0  0  0  0  0  0  0  0
   -0.9457    1.5545   -1.5623 C   0  0  0  0  0  0  0  0  0  0  0  0
    0.9526    0.3139    2.2732 N   0  0  1  0  0  0  0  0  0  0  0  0
    2.0912    2.5090    1.6508 C   0  0  1  0  0  0  0  0  0  0  0  0
   -2.3654    1.7311   -1.5426 C   0  0  0  0  0  0  0  0  0  0  0  0
   -0.2631    1.4698   -2.8121 C   0  0  0  0  0  0  0  0  0  0  0  0
    1.3489   -0.6464    1.1771 C   0  0  1  0  0  0  0  0  0  0  0  0
    1.7553    0.2516    3.5426 C   0  0  1  0  0  0  0  0  0  0  0  0
    3.0023    2.4018    2.9012 C   0  0  2  0  0  0  0  0  0  0  0  0
   -3.1849    1.6447   -0.3032 C   0  0  0  0  0  0  0  0  0  0  0  0
   -3.0446    1.9472   -2.7654 C   0  0  0  0  0  0  0  0  0  0  0  0
    1.1881    1.1395   -2.8945 C   0  0  0  0  0  0  0  0  0  0  0  0
   -0.9817    1.6802   -4.0115 C   0  0  0  0  0  0  0  0  0  0  0  0
    1.9278   -2.0487    1.5278 C   0  0  1  0  0  0  0  0  0  0  0  0
    3.1412    0.9384    3.3962 C   0  0  2  0  0  0  0  0  0  0  0  0
   -2.3588    1.9320   -3.9869 C   0  0  0  0  0  0  0  0  0  0  0  0
    2.1913   -2.9108    0.2580 C   0  0  1  0  0  0  0  0  0  0  0  0
    2.5352   -4.3819    0.5810 C   0  0  0  0  0  0  0  0  0  0  0  0
    0.5331    0.7408   -0.5257 H   0  0  0  0  0  0  0  0  0  0  0  0
    0.2716    2.2400    2.7428 H   0  0  0  0  0  0  0  0  0  0  0  0
    2.6147    2.0887    0.7895 H   0  0  0  0  0  0  0  0  0  0  0  0
    1.9110    3.5689    1.4411 H   0  0  0  0  0  0  0  0  0  0  0  0
    0.4321   -0.8497    0.6212 H   0  0  0  0  0  0  0  0  0  0  0  0
    2.0653   -0.1689    0.5063 H   0  0  0  0  0  0  0  0  0  0  0  0
    1.1966    0.7551    4.3396 H   0  0  0  0  0  0  0  0  0  0  0  0
    1.8846   -0.7763    3.8858 H   0  0  0  0  0  0  0  0  0  0  0  0
    2.5808    3.0157    3.7030 H   0  0  0  0  0  0  0  0  0  0  0  0
    3.9912    2.8040    2.6620 H   0  0  0  0  0  0  0  0  0  0  0  0
   -2.7521    0.9314    0.3997 H   0  0  0  0  0  0  0  0  0  0  0  0
   -4.1993    1.3014   -0.5128 H   0  0  0  0  0  0  0  0  0  0  0  0
   -3.2605    2.6255    0.1686 H   0  0  0  0  0  0  0  0  0  0  0  0
   -4.0555    2.1059   -2.7782 H   0  0  0  0  0  0  0  0  0  0  0  0
    1.3457    0.1272   -2.5143 H   0  0  0  0  0  0  0  0  0  0  0  0
    1.5741    1.1756   -3.9162 H   0  0  0  0  0  0  0  0  0  0  0  0
    1.7723    1.8394   -2.2937 H   0  0  0  0  0  0  0  0  0  0  0  0
   -0.5081    1.6439   -4.9166 H   0  0  0  0  0  0  0  0  0  0  0  0
    2.8786   -1.9334    2.0559 H   0  0  0  0  0  0  0  0  0  0  0  0
    1.2230   -2.5663    2.1836 H   0  0  0  0  0  0  0  0  0  0  0  0
    3.7558    0.3809    2.6858 H   0  0  0  0  0  0  0  0  0  0  0  0
    3.6485    0.9298    4.3640 H   0  0  0  0  0  0  0  0  0  0  0  0
   -2.8643    2.0862   -4.8620 H   0  0  0  0  0  0  0  0  0  0  0  0
    1.3077   -2.9036   -0.3866 H   0  0  0  0  0  0  0  0  0  0  0  0
    3.0214   -2.4723   -0.3044 H   0  0  0  0  0  0  0  0  0  0  0  0
    2.7393   -4.9239   -0.3451 H   0  0  0  0  0  0  0  0  0  0  0  0
    1.6941   -4.8616    1.0863 H   0  0  0  0  0  0  0  0  0  0  0  0
    3.4180   -4.4378    1.2212 H   0  0  0  0  0  0  0  0  0  0  0  0
  1  2  1  0  0  0  0 
  1  3  2  0  0  0  0 
  2  5  1  0  0  0  0 
  4  1  1  0  0  0  0 
  4  6  1  0  0  0  0 
  4  7  1  0  0  0  0 
  5  8  2  0  0  0  0 
  5  9  1  0  0  0  0 
  6 10  1  0  0  0  0 
  6 11  1  0  0  0  0 
  7 12  1  0  0  0  0 
  8 13  1  0  0  0  0 
  8 14  1  0  0  0  0 
  9 15  1  0  0  0  0 
  9 16  2  0  0  0  0 
 10 17  1  0  0  0  0 
 11 18  1  0  0  0  0 
 12 18  1  0  0  0  0 
 14 19  2  0  0  0  0 
 16 19  1  0  0  0  0 
 17 20  1  0  0  0  0 
 20 21  1  0  0  0  0 
  2 22  1  0  0  0  0 
  4 23  1  0  0  0  0 
  7 24  1  0  0  0  0 
  7 25  1  0  0  0  0 
 10 26  1  0  0  0  0 
 10 27  1  0  0  0  0 
 11 28  1  0  0  0  0 
 11 29  1  0  0  0  0 
 12 30  1  0  0  0  0 
 12 31  1  0  0  0  0 
 13 32  1  0  0  0  0 
 13 33  1  0  0  0  0 
 13 34  1  0  0  0  0 
 14 35  1  0  0  0  0 
 15 36  1  0  0  0  0 
 15 37  1  0  0  0  0 
 15 38  1  0  0  0  0 
 16 39  1  0  0  0  0 
 17 40  1  0  0  0  0 
 17 41  1  0  0  0  0 
 18 42  1  0  0  0  0 
 18 43  1  0  0  0  0 
 19 44  1  0  0  0  0 
 20 45  1  0  0  0  0 
 20 46  1  0  0  0  0 
 21 47  1  0  0  0  0 
 21 48  1  0  0  0  0 
 21 49  1  0  0  0  0 
M  END
> <cdk:Title>
levobupivacaine

> <Conformer>
4

> <SuperDrugID>
SD000001

$$$$
levobupivacaine
  CDK     0628171802

 49 50  0  0  0  0  0  0  0  0999 V2000
   -0.1892    2.0941    0.7423 C   0  0  0  0  0  0  0  0  0  0  0  0
   -0.1737    1.4151   -0.4419 N   0  0  0  0  0  0  0  0  0  0  0  0
   -0.9313    3.0947    0.8878 O   0  0  0  0  0  0  0  0  0  0  0  0
    0.7410    1.7550    1.8714 C   0  0  1  0  0  0  0  0  0  0  0  0
   -0.9429    1.5226   -1.5813 C   0  0  0  0  0  0  0  0  0  0  0  0
    0.7999    0.3110    2.3467 N   0  0  1  0  0  0  0  0  0  0  0  0
    2.1735    2.3398    1.6432 C   0  0  1  0  0  0  0  0  0  0  0  0
   -2.3279    1.8865   -1.6327 C   0  0  0  0  0  0  0  0  0  0  0  0
   -0.2692    1.1988   -2.8002 C   0  0  0  0  0  0  0  0  0  0  0  0
    1.1435   -0.7160    1.3012 C   0  0  1  0  0  0  0  0  0  0  0  0
    1.5813    0.2137    3.6263 C   0  0  1  0  0  0  0  0  0  0  0  0
    3.0673    2.1629    2.9040 C   0  0  2  0  0  0  0  0  0  0  0  0
   -3.2371    1.9932   -0.4590 C   0  0  0  0  0  0  0  0  0  0  0  0
   -2.9355    2.1055   -2.8922 C   0  0  0  0  0  0  0  0  0  0  0  0
    1.1200    0.6581   -2.8104 C   0  0  0  0  0  0  0  0  0  0  0  0
   -0.9282    1.3833   -4.0371 C   0  0  0  0  0  0  0  0  0  0  0  0
    1.3814   -2.1911    1.7272 C   0  0  1  0  0  0  0  0  0  0  0  0
    3.0404    0.7168    3.4653 C   0  0  2  0  0  0  0  0  0  0  0  0
   -2.2409    1.8658   -4.0841 C   0  0  0  0  0  0  0  0  0  0  0  0
    1.5566   -3.1098    0.4853 C   0  0  1  0  0  0  0  0  0  0  0  0
    1.6801   -4.6064    0.8356 C   0  0  0  0  0  0  0  0  0  0  0  0
    0.5481    0.7773   -0.5154 H   0  0  0  0  0  0  0  0  0  0  0  0
    0.3396    2.3198    2.7247 H   0  0  0  0  0  0  0  0  0  0  0  0
    2.6524    1.8593    0.7871 H   0  0  0  0  0  0  0  0  0  0  0  0
    2.1073    3.4100    1.4240 H   0  0  0  0  0  0  0  0  0  0  0  0
    0.2843   -0.7667    0.6358 H   0  0  0  0  0  0  0  0  0  0  0  0
    2.0145   -0.3927    0.7254 H   0  0  0  0  0  0  0  0  0  0  0  0
    1.0842    0.8175    4.3902 H   0  0  0  0  0  0  0  0  0  0  0  0
    1.5790   -0.8031    4.0192 H   0  0  0  0  0  0  0  0  0  0  0  0
    2.7199    2.8451    3.6862 H   0  0  0  0  0  0  0  0  0  0  0  0
    4.0970    2.4374    2.6610 H   0  0  0  0  0  0  0  0  0  0  0  0
   -3.4454    3.0442   -0.2403 H   0  0  0  0  0  0  0  0  0  0  0  0
   -2.8305    1.5137    0.4295 H   0  0  0  0  0  0  0  0  0  0  0  0
   -4.1867    1.4891   -0.6659 H   0  0  0  0  0  0  0  0  0  0  0  0
   -3.9090    2.4180   -2.9555 H   0  0  0  0  0  0  0  0  0  0  0  0
    1.1632   -0.2607   -2.2221 H   0  0  0  0  0  0  0  0  0  0  0  0
    1.4721    0.4186   -3.8140 H   0  0  0  0  0  0  0  0  0  0  0  0
    1.8040    1.3894   -2.3794 H   0  0  0  0  0  0  0  0  0  0  0  0
   -0.4580    1.1681   -4.9198 H   0  0  0  0  0  0  0  0  0  0  0  0
    2.2880   -2.2607    2.3333 H   0  0  0  0  0  0  0  0  0  0  0  0
    0.5327   -2.5326    2.3255 H   0  0  0  0  0  0  0  0  0  0  0  0
    3.5956    0.0505    2.7988 H   0  0  0  0  0  0  0  0  0  0  0  0
    3.5342    0.6949    4.4408 H   0  0  0  0  0  0  0  0  0  0  0  0
   -2.6956    2.0236   -4.9865 H   0  0  0  0  0  0  0  0  0  0  0  0
    0.7012   -2.9899   -0.1859 H   0  0  0  0  0  0  0  0  0  0  0  0
    2.4555   -2.8028   -0.0572 H   0  0  0  0  0  0  0  0  0  0  0  0
    1.9125   -5.1720   -0.0690 H   0  0  0  0  0  0  0  0  0  0  0  0
    0.7377   -4.9747    1.2450 H   0  0  0  0  0  0  0  0  0  0  0  0
    2.4769   -4.7680    1.5640 H   0  0  0  0  0  0  0  0  0  0  0  0
  1  2  1  0  0  0  0 
  1  3  2  0  0  0  0 
  2  5  1  0  0  0  0 
  4  1  1  0  0  0  0 
  4  6  1  0  0  0  0 
  4  7  1  0  0  0  0 
  5  8  2  0  0  0  0 
  5  9  1  0  0  0  0 
  6 10  1  0  0  0  0 
  6 11  1  0  0  0  0 
  7 12  1  0  0  0  0 
  8 13  1  0  0  0  0 
  8 14  1  0  0  0  0 
  9 15  1  0  0  0  0 
  9 16  2  0  0  0  0 
 10 17  1  0  0  0  0 
 11 18  1  0  0  0  0 
 12 18  1  0  0  0  0 
 14 19  2  0  0  0  0 
 16 19  1  0  0  0  0 
 17 20  1  0  0  0  0 
 20 21  1  0  0  0  0 
  2 22  1  0  0  0  0 
  4 23  1  0  0  0  0 
  7 24  1  0  0  0  0 
  7 25  1  0  0  0  0 
 10 26  1  0  0  0  0 
 10 27  1  0  0  0  0 
 11 28  1  0  0  0  0 
 11 29  1  0  0  0  0 
 12 30  1  0  0  0  0 
 12 31  1  0  0  0  0 
 13 32  1  0  0  0  0 
 13 33  1  0  0  0  0 
 13 34  1  0  0  0  0 
 14 35  1  0  0  0  0 
 15 36  1  0  0  0  0 
 15 37  1  0  0  0  0 
 15 38  1  0  0  0  0 
 16 39  1  0  0  0  0 
 17 40  1  0  0  0  0 
 17 41  1  0  0  0  0 
 18 42  1  0  0  0  0 
 18 43  1  0  0  0  0 
 19 44  1  0  0  0  0 
 20 45  1  0  0  0  0 
 20 46  1  0  0  0  0 
 21 47  1  0  0  0  0 
 21 48  1  0  0  0  0 
 21 49  1  0  0  0  0 
M  END
> <cdk:Title>
levobupivacaine

> <Conformer>
5

> <SuperDrugID>
SD000001

$$$$
levobupivacaine
  CDK     0628171802

 49 50  0  0  0  0  0  0  0  0999 V2000
   -0.3089    2.2571    0.7686 C   0  0  0  0  0  0  0  0  0  0  0  0
   -0.6428    1.9595   -0.5261 N   0  0  0  0  0  0  0  0  0  0  0  0
   -0.7664    3.3725    1.1125 O   0  0  0  0  0  0  0  0  0  0  0  0
    0.4655    1.5065    1.8208 C   0  0  1  0  0  0  0  0  0  0  0  0
   -0.4500    0.8307   -1.2698 C   0  0  0  0  0  0  0  0  0  0  0  0
    0.7732    0.0489    1.5571 N   0  0  2  0  0  0  0  0  0  0  0  0
    1.7347    2.3726    2.1391 C   0  0  1  0  0  0  0  0  0  0  0  0
    0.8361    0.3587   -1.6597 C   0  0  0  0  0  0  0  0  0  0  0  0
   -1.6192    0.1340   -1.6968 C   0  0  0  0  0  0  0  0  0  0  0  0
   -0.4202   -0.8621    1.3842 C   0  0  1  0  0  0  0  0  0  0  0  0
    1.8557   -0.5613    2.4042 C   0  0  1  0  0  0  0  0  0  0  0  0
    2.7255    1.6970    3.1097 C   0  0  2  0  0  0  0  0  0  0  0  0
    2.0933    1.1050   -1.4066 C   0  0  0  0  0  0  0  0  0  0  0  0
    0.9337   -0.8697   -2.3572 C   0  0  0  0  0  0  0  0  0  0  0  0
   -2.9856    0.6288   -1.3684 C   0  0  0  0  0  0  0  0  0  0  0  0
   -1.4827   -1.0655   -2.4335 C   0  0  0  0  0  0  0  0  0  0  0  0
   -0.8608   -1.7761    2.5641 C   0  0  1  0  0  0  0  0  0  0  0  0
    3.1193    0.3115    2.5627 C   0  0  2  0  0  0  0  0  0  0  0  0
   -0.2151   -1.5768   -2.7420 C   0  0  0  0  0  0  0  0  0  0  0  0
   -2.2188   -2.4818    2.2965 C   0  0  1  0  0  0  0  0  0  0  0  0
   -2.5239   -3.6176    3.2983 C   0  0  0  0  0  0  0  0  0  0  0  0
   -1.1735    2.6409   -0.9690 H   0  0  0  0  0  0  0  0  0  0  0  0
   -0.1501    1.5168    2.7270 H   0  0  0  0  0  0  0  0  0  0  0  0
    2.2800    2.6008    1.2201 H   0  0  0  0  0  0  0  0  0  0  0  0
    1.4258    3.3255    2.5817 H   0  0  0  0  0  0  0  0  0  0  0  0
   -1.2937   -0.2742    1.1094 H   0  0  0  0  0  0  0  0  0  0  0  0
   -0.1930   -1.5167    0.5396 H   0  0  0  0  0  0  0  0  0  0  0  0
    1.4812   -0.7577    3.4146 H   0  0  0  0  0  0  0  0  0  0  0  0
    2.1597   -1.5140    1.9604 H   0  0  0  0  0  0  0  0  0  0  0  0
    2.2677    1.6030    4.0993 H   0  0  0  0  0  0  0  0  0  0  0  0
    3.6253    2.3095    3.2088 H   0  0  0  0  0  0  0  0  0  0  0  0
    2.6828    0.5818   -0.6540 H   0  0  0  0  0  0  0  0  0  0  0  0
    1.9110    2.1260   -1.0739 H   0  0  0  0  0  0  0  0  0  0  0  0
    2.6802    1.1683   -2.3249 H   0  0  0  0  0  0  0  0  0  0  0  0
    1.8479   -1.2566   -2.6084 H   0  0  0  0  0  0  0  0  0  0  0  0
   -3.1378    1.6138   -1.8111 H   0  0  0  0  0  0  0  0  0  0  0  0
   -3.7683   -0.0322   -1.7431 H   0  0  0  0  0  0  0  0  0  0  0  0
   -3.1091    0.7075   -0.2873 H   0  0  0  0  0  0  0  0  0  0  0  0
   -2.3072   -1.5836   -2.7501 H   0  0  0  0  0  0  0  0  0  0  0  0
   -0.0975   -2.5442    2.7152 H   0  0  0  0  0  0  0  0  0  0  0  0
   -0.9424   -1.1801    3.4768 H   0  0  0  0  0  0  0  0  0  0  0  0
    3.6178    0.4174    1.5972 H   0  0  0  0  0  0  0  0  0  0  0  0
    3.8182   -0.1686    3.2528 H   0  0  0  0  0  0  0  0  0  0  0  0
   -0.1301   -2.4574   -3.2577 H   0  0  0  0  0  0  0  0  0  0  0  0
   -3.0221   -1.7417    2.3501 H   0  0  0  0  0  0  0  0  0  0  0  0
   -2.2213   -2.9105    1.2901 H   0  0  0  0  0  0  0  0  0  0  0  0
   -3.5208   -4.0185    3.1063 H   0  0  0  0  0  0  0  0  0  0  0  0
   -2.4888   -3.2453    4.3227 H   0  0  0  0  0  0  0  0  0  0  0  0
   -1.7995   -4.4269    3.1886 H   0  0  0  0  0  0  0  0  0  0  0  0
  1  2  1  0  0  0  0 
  1  3  2  0  0  0  0 
  2  5  1  0  0  0  0 
  4  1  1  0  0  0  0 
  4  6  1  0  0  0  0 
  4  7  1  0  0  0  0 
  5  8  2  0  0  0  0 
  5  9  1  0  0  0  0 
  6 10  1  0  0  0  0 
  6 11  1  0  0  0  0 
  7 12  1  0  0  0  0 
  8 13  1  0  0  0  0 
  8 14  1  0  0  0  0 
  9 15  1  0  0  0  0 
  9 16  2  0  0  0  0 
 10 17  1  0  0  0  0 
 11 18  1  0  0  0  0 
 12 18  1  0  0  0  0 
 14 19  2  0  0  0  0 
 16 19  1  0  0  0  0 
 17 20  1  0  0  0  0 
 20 21  1  0  0  0  0 
  2 22  1  0  0  0  0 
  4 23  1  0  0  0  0 
  7 24  1  0  0  0  0 
  7 25  1  0  0  0  0 
 10 26  1  0  0  0  0 
 10 27  1  0  0  0  0 
 11 28  1  0  0  0  0 
 11 29  1  0  0  0  0 
 12 30  1  0  0  0  0 
 12 31  1  0  0  0  0 
 13 32  1  0  0  0  0 
 13 33  1  0  0  0  0 
 13 34  1  0  0  0  0 
 14 35  1  0  0  0  0 
 15 36  1  0  0  0  0 
 15 37  1  0  0  0  0 
 15 38  1  0  0  0  0 
 16 39  1  0  0  0  0 
 17 40  1  0  0  0  0 
 17 41  1  0  0  0  0 
 18 42  1  0  0  0  0 
 18 43  1  0  0  0  0 
 19 44  1  0  0  0  0 
 20 45  1  0  0  0  0 
 20 46  1  0  0  0  0 
 21 47  1  0  0  0  0 
 21 48  1  0  0  0  0 
 21 49  1  0  0  0  0 
M  END
> <cdk:Title>
levobupivacaine

> <Conformer>
6

> <SuperDrugID>
SD000001

$$$$
levobupivacaine
  CDK     0628171802

 49 50  0  0  0  0  0  0  0  0999 V2000
    0.0060    1.8777    0.6161 C   0  0  0  0  0  0  0  0  0  0  0  0
   -0.2111    1.5860   -0.7099 N   0  0  0  0  0  0  0  0  0  0  0  0
   -0.8612    2.6804    1.0348 O   0  0  0  0  0  0  0  0  0  0  0  0
    1.0713    1.4753    1.6097 C   0  0  1  0  0  0  0  0  0  0  0  0
    0.3169    0.6423   -1.5431 C   0  0  0  0  0  0  0  0  0  0  0  0
    1.3478    0.0293    1.9490 N   0  0  0  0  0  0  0  0  0  0  0  0
    2.3846    2.2649    1.3297 C   0  0  1  0  0  0  0  0  0  0  0  0
    1.5485    0.8326   -2.2338 C   0  0  0  0  0  0  0  0  0  0  0  0
   -0.4745   -0.5122   -1.8345 C   0  0  0  0  0  0  0  0  0  0  0  0
    0.7451   -1.0876    1.1677 C   0  0  1  0  0  0  0  0  0  0  0  0
    2.4632   -0.2395    2.9207 C   0  0  1  0  0  0  0  0  0  0  0  0
    3.4271    2.0764    2.4600 C   0  0  2  0  0  0  0  0  0  0  0  0
    2.2838    2.1220   -2.2654 C   0  0  0  0  0  0  0  0  0  0  0  0
    2.0687   -0.2219   -3.0218 C   0  0  0  0  0  0  0  0  0  0  0  0
   -1.8749   -0.7019   -1.3576 C   0  0  0  0  0  0  0  0  0  0  0  0
    0.0685   -1.5400   -2.6415 C   0  0  0  0  0  0  0  0  0  0  0  0
    0.5530   -2.4769    1.8354 C   0  0  1  0  0  0  0  0  0  0  0  0
    3.7493    0.5754    2.6348 C   0  0  2  0  0  0  0  0  0  0  0  0
    1.3441   -1.4080   -3.2089 C   0  0  0  0  0  0  0  0  0  0  0  0
   -0.2982   -2.4455    3.1322 C   0  0  1  0  0  0  0  0  0  0  0  0
   -0.4063   -3.8342    3.8017 C   0  0  0  0  0  0  0  0  0  0  0  0
   -0.9302    2.0945   -1.1145 H   0  0  0  0  0  0  0  0  0  0  0  0
    0.7230    1.8654    2.5744 H   0  0  0  0  0  0  0  0  0  0  0  0
    2.8289    1.9096    0.4031 H   0  0  0  0  0  0  0  0  0  0  0  0
    2.1792    3.3357    1.2240 H   0  0  0  0  0  0  0  0  0  0  0  0
   -0.2541   -0.7768    0.8774 H   0  0  0  0  0  0  0  0  0  0  0  0
    1.3505   -1.2306    0.2716 H   0  0  0  0  0  0  0  0  0  0  0  0
    2.1019    0.0077    3.9225 H   0  0  0  0  0  0  0  0  0  0  0  0
    2.7552   -1.2887    2.9387 H   0  0  0  0  0  0  0  0  0  0  0  0
    3.0374    2.4829    3.3984 H   0  0  0  0  0  0  0  0  0  0  0  0
    4.3409    2.6250    2.2176 H   0  0  0  0  0  0  0  0  0  0  0  0
    3.3166    1.9867   -1.9370 H   0  0  0  0  0  0  0  0  0  0  0  0
    1.8176    2.8910   -1.6479 H   0  0  0  0  0  0  0  0  0  0  0  0
    2.2910    2.4900   -3.2940 H   0  0  0  0  0  0  0  0  0  0  0  0
    2.9721   -0.1248   -3.4926 H   0  0  0  0  0  0  0  0  0  0  0  0
   -2.2224    0.1026   -0.7083 H   0  0  0  0  0  0  0  0  0  0  0  0
   -2.5461   -0.7483   -2.2170 H   0  0  0  0  0  0  0  0  0  0  0  0
   -1.9617   -1.6390   -0.8050 H   0  0  0  0  0  0  0  0  0  0  0  0
   -0.4670   -2.3951   -2.8305 H   0  0  0  0  0  0  0  0  0  0  0  0
    0.0473   -3.1219    1.1100 H   0  0  0  0  0  0  0  0  0  0  0  0
    1.5238   -2.9334    2.0355 H   0  0  0  0  0  0  0  0  0  0  0  0
    4.2246    0.1942    1.7259 H   0  0  0  0  0  0  0  0  0  0  0  0
    4.4564    0.4503    3.4594 H   0  0  0  0  0  0  0  0  0  0  0  0
    1.7273   -2.1630   -3.7842 H   0  0  0  0  0  0  0  0  0  0  0  0
    0.1454   -1.7517    3.8497 H   0  0  0  0  0  0  0  0  0  0  0  0
   -1.3054   -2.0923    2.8947 H   0  0  0  0  0  0  0  0  0  0  0  0
   -1.0470   -3.7714    4.6841 H   0  0  0  0  0  0  0  0  0  0  0  0
    0.5832   -4.1780    4.1111 H   0  0  0  0  0  0  0  0  0  0  0  0
   -0.8360   -4.5630    3.1104 H   0  0  0  0  0  0  0  0  0  0  0  0
  1  2  1  0  0  0  0 
  1  3  2  0  0  0  0 
  2  5  1  0  0  0  0 
  4  1  1  0  0  0  0 
  4  6  1  0  0  0  0 
  4  7  1  0  0  0  0 
  5  8  2  0  0  0  0 
  5  9  1  0  0  0  0 
  6 10  1  0  0  0  0 
  6 11  1  0  0  0  0 
  7 12  1  0  0  0  0 
  8 13  1  0  0  0  0 
  8 14  1  0  0  0  0 
  9 15  1  0  0  0  0 
  9 16  2  0  0  0  0 
 10 17  1  0  0  0  0 
 11 18  1  0  0  0  0 
 12 18  1  0  0  0  0 
 14 19  2  0  0  0  0 
 16 19  1  0  0  0  0 
 17 20  1  0  0  0  0 
 20 21  1  0  0  0  0 
  2 22  1  0  0  0  0 
  4 23  1  0  0  0  0 
  7 24  1  0  0  0  0 
  7 25  1  0  0  0  0 
 10 26  1  0  0  0  0 
 10 27  1  0  0  0  0 
 11 28  1  0  0  0  0 
 11 29  1  0  0  0  0 
 12 30  1  0  0  0  0 
 12 31  1  0  0  0  0 
 13 32  1  0  0  0  0 
 13 33  1  0  0  0  0 
 13 34  1  0  0  0  0 
 14 35  1  0  0  0  0 
 15 36  1  0  0  0  0 
 15 37  1  0  0  0  0 
 15 38  1  0  0  0  0 
 16 39  1  0  0  0  0 
 17 40  1  0  0  0  0 
 17 41  1  0  0  0  0 
 18 42  1  0  0  0  0 
 18 43  1  0  0  0  0 
 19 44  1  0  0  0  0 
 20 45  1  0  0  0  0 
 20 46  1  0  0  0  0 
 21 47  1  0  0  0  0 
 21 48  1  0  0  0  0 
 21 49  1  0  0  0  0 
M  END
> <cdk:Title>
levobupivacaine

> <Conformer>
7

> <SuperDrugID>
SD000001

$$$$
levobupivacaine
  CDK     0628171802

 49 50  0  0  0  0  0  0  0  0999 V2000
   -0.2296    2.1675    0.7452 C   0  0  0  0  0  0  0  0  0  0  0  0
   -0.6711    1.8709   -0.5270 N   0  0  0  0  0  0  0  0  0  0  0  0
   -0.8059    3.2126    1.1334 O   0  0  0  0  0  0  0  0  0  0  0  0
    0.7298    1.6061    1.7530 C   0  0  1  0  0  0  0  0  0  0  0  0
   -0.5193    1.0244   -1.6262 C   0  0  0  0  0  0  0  0  0  0  0  0
    0.3007    0.2857    2.3500 N   0  0  2  0  0  0  0  0  0  0  0  0
    2.1934    1.7053    1.2280 C   0  0  1  0  0  0  0  0  0  0  0  0
   -1.2063    1.5336   -2.7897 C   0  0  0  0  0  0  0  0  0  0  0  0
    0.1705   -0.2294   -1.7699 C   0  0  0  0  0  0  0  0  0  0  0  0
   -1.0420    0.3133    3.0433 C   0  0  1  0  0  0  0  0  0  0  0  0
    1.3592   -0.3869    3.1828 C   0  0  1  0  0  0  0  0  0  0  0  0
    3.2018    1.0854    2.2232 C   0  0  2  0  0  0  0  0  0  0  0  0
   -1.9805    2.8189   -2.7974 C   0  0  0  0  0  0  0  0  0  0  0  0
   -1.1837    0.8225   -4.0136 C   0  0  0  0  0  0  0  0  0  0  0  0
    0.8930   -0.9708   -0.7203 C   0  0  0  0  0  0  0  0  0  0  0  0
    0.1852   -0.8936   -3.0225 C   0  0  0  0  0  0  0  0  0  0  0  0
   -1.8197   -1.0335    3.0168 C   0  0  1  0  0  0  0  0  0  0  0  0
    2.7871   -0.3581    2.5818 C   0  0  2  0  0  0  0  0  0  0  0  0
   -0.4872   -0.3800   -4.1315 C   0  0  0  0  0  0  0  0  0  0  0  0
   -2.4335   -1.3821    1.6330 C   0  0  1  0  0  0  0  0  0  0  0  0
   -3.1908   -2.7288    1.6470 C   0  0  0  0  0  0  0  0  0  0  0  0
   -1.3382    2.5352   -0.7382 H   0  0  0  0  0  0  0  0  0  0  0  0
    0.7330    2.2860    2.6170 H   0  0  0  0  0  0  0  0  0  0  0  0
    2.2962    1.2198    0.2603 H   0  0  0  0  0  0  0  0  0  0  0  0
    2.4555    2.7582    1.0815 H   0  0  0  0  0  0  0  0  0  0  0  0
   -0.9063    0.6184    4.0863 H   0  0  0  0  0  0  0  0  0  0  0  0
   -1.7050    1.0610    2.5995 H   0  0  0  0  0  0  0  0  0  0  0  0
    1.4034    0.0795    4.1719 H   0  0  0  0  0  0  0  0  0  0  0  0
    1.0951   -1.4369    3.3191 H   0  0  0  0  0  0  0  0  0  0  0  0
    3.2408    1.6923    3.1335 H   0  0  0  0  0  0  0  0  0  0  0  0
    4.2015    1.0835    1.7813 H   0  0  0  0  0  0  0  0  0  0  0  0
   -2.8061    2.7488   -2.0848 H   0  0  0  0  0  0  0  0  0  0  0  0
   -2.4105    3.0695   -3.7719 H   0  0  0  0  0  0  0  0  0  0  0  0
   -1.3287    3.6486   -2.5124 H   0  0  0  0  0  0  0  0  0  0  0  0
   -1.6783    1.1679   -4.8422 H   0  0  0  0  0  0  0  0  0  0  0  0
    0.5711   -0.6549    0.2402 H   0  0  0  0  0  0  0  0  0  0  0  0
    0.6897   -2.0457   -0.7647 H   0  0  0  0  0  0  0  0  0  0  0  0
    1.9660   -0.8076   -0.8248 H   0  0  0  0  0  0  0  0  0  0  0  0
    0.6818   -1.7821   -3.1460 H   0  0  0  0  0  0  0  0  0  0  0  0
   -1.1733   -1.8493    3.3494 H   0  0  0  0  0  0  0  0  0  0  0  0
   -2.6403   -0.9531    3.7364 H   0  0  0  0  0  0  0  0  0  0  0  0
    2.8282   -0.9868    1.6887 H   0  0  0  0  0  0  0  0  0  0  0  0
    3.4912   -0.7639    3.3136 H   0  0  0  0  0  0  0  0  0  0  0  0
   -0.4753   -0.8871   -5.0215 H   0  0  0  0  0  0  0  0  0  0  0  0
   -3.1312   -0.5928    1.3382 H   0  0  0  0  0  0  0  0  0  0  0  0
   -1.6466   -1.4342    0.8800 H   0  0  0  0  0  0  0  0  0  0  0  0
   -3.6294   -2.9178    0.6652 H   0  0  0  0  0  0  0  0  0  0  0  0
   -3.9923   -2.7076    2.3896 H   0  0  0  0  0  0  0  0  0  0  0  0
   -2.5043   -3.5437    1.8850 H   0  0  0  0  0  0  0  0  0  0  0  0
  1  2  1  0  0  0  0 
  1  3  2  0  0  0  0 
  2  5  1  0  0  0  0 
  4  1  1  0  0  0  0 
  4  6  1  0  0  0  0 
  4  7  1  0  0  0  0 
  5  8  2  0  0  0  0 
  5  9  1  0  0  0  0 
  6 10  1  0  0  0  0 
  6 11  1  0  0  0  0 
  7 12  1  0  0  0  0 
  8 13  1  0  0  0  0 
  8 14  1  0  0  0  0 
  9 15  1  0  0  0  0 
  9 16  2  0  0  0  0 
 10 17  1  0  0  0  0 
 11 18  1  0  0  0  0 
 12 18  1  0  0  0  0 
 14 19  2  0  0  0  0 
 16 19  1  0  0  0  0 
 17 20  1  0  0  0  0 
 20 21  1  0  0  0  0 
  2 22  1  0  0  0  0 
  4 23  1  0  0  0  0 
  7 24  1  0  0  0  0 
  7 25  1  0  0  0  0 
 10 26  1  0  0  0  0 
 10 27  1  0  0  0  0 
 11 28  1  0  0  0  0 
 11 29  1  0  0  0  0 
 12 30  1  0  0  0  0 
 12 31  1  0  0  0  0 
 13 32  1  0  0  0  0 
 13 33  1  0  0  0  0 
 13 34  1  0  0  0  0 
 14 35  1  0  0  0  0 
 15 36  1  0  0  0  0 
 15 37  1  0  0  0  0 
 15 38  1  0  0  0  0 
 16 39  1  0  0  0  0 
 17 40  1  0  0  0  0 
 17 41  1  0  0  0  0 
 18 42  1  0  0  0  0 
 18 43  1  0  0  0  0 
 19 44  1  0  0  0  0 
 20 45  1  0  0  0  0 
 20 46  1  0  0  0  0 
 21 47  1  0  0  0  0 
 21 48  1  0  0  0  0 
 21 49  1  0  0  0  0 
M  END
> <cdk:Title>
levobupivacaine

> <Conformer>
8

> <SuperDrugID>
SD000001

$$$$
levobupivacaine
  CDK     0628171802

 49 50  0  0  0  0  0  0  0  0999 V2000
    0.0498    1.8551    0.6524 C   0  0  0  0  0  0  0  0  0  0  0  0
   -0.1741    1.4936   -0.6632 N   0  0  0  0  0  0  0  0  0  0  0  0
   -0.8334    2.6775    0.9991 O   0  0  0  0  0  0  0  0  0  0  0  0
    1.0421    1.5572    1.7405 C   0  0  1  0  0  0  0  0  0  0  0  0
    0.2377    0.6783   -1.7212 C   0  0  0  0  0  0  0  0  0  0  0  0
    1.2244    0.1005    2.1066 N   0  0  2  0  0  0  0  0  0  0  0  0
    2.3269    2.4032    1.4743 C   0  0  1  0  0  0  0  0  0  0  0  0
   -0.7650    0.5946   -2.7538 C   0  0  0  0  0  0  0  0  0  0  0  0
    1.4728   -0.0179   -1.9544 C   0  0  0  0  0  0  0  0  0  0  0  0
   -0.0327   -0.5396    2.6472 C   0  0  1  0  0  0  0  0  0  0  0  0
    2.4071   -0.1556    3.0042 C   0  0  1  0  0  0  0  0  0  0  0  0
    3.4529    2.1018    2.4875 C   0  0  2  0  0  0  0  0  0  0  0  0
   -2.1078    1.2482   -2.6460 C   0  0  0  0  0  0  0  0  0  0  0  0
   -0.5181   -0.1144   -3.9539 C   0  0  0  0  0  0  0  0  0  0  0  0
    2.6371   -0.0334   -1.0494 C   0  0  0  0  0  0  0  0  0  0  0  0
    1.6721   -0.7256   -3.1695 C   0  0  0  0  0  0  0  0  0  0  0  0
   -0.0310   -2.0936    2.6318 C   0  0  1  0  0  0  0  0  0  0  0  0
    3.7034    0.5823    2.5917 C   0  0  2  0  0  0  0  0  0  0  0  0
    0.6936   -0.7697   -4.1628 C   0  0  0  0  0  0  0  0  0  0  0  0
   -1.3734   -2.7005    3.1249 C   0  0  1  0  0  0  0  0  0  0  0  0
   -1.3293   -4.2429    3.2145 C   0  0  0  0  0  0  0  0  0  0  0  0
   -0.9363    2.0094   -0.9544 H   0  0  0  0  0  0  0  0  0  0  0  0
    0.6532    2.0049    2.6676 H   0  0  0  0  0  0  0  0  0  0  0  0
    2.7030    2.2522    0.4680 H   0  0  0  0  0  0  0  0  0  0  0  0
    2.0834    3.4668    1.5526 H   0  0  0  0  0  0  0  0  0  0  0  0
   -0.2176   -0.1987    3.6724 H   0  0  0  0  0  0  0  0  0  0  0  0
   -0.8921   -0.2254    2.0503 H   0  0  0  0  0  0  0  0  0  0  0  0
    2.1720    0.1247    4.0352 H   0  0  0  0  0  0  0  0  0  0  0  0
    2.6493   -1.2190    2.9970 H   0  0  0  0  0  0  0  0  0  0  0  0
    3.1750    2.4930    3.4709 H   0  0  0  0  0  0  0  0  0  0  0  0
    4.3727    2.6062    2.1772 H   0  0  0  0  0  0  0  0  0  0  0  0
   -1.9849    2.3321   -2.6040 H   0  0  0  0  0  0  0  0  0  0  0  0
   -2.6143    0.9097   -1.7405 H   0  0  0  0  0  0  0  0  0  0  0  0
   -2.7694    1.0284   -3.4868 H   0  0  0  0  0  0  0  0  0  0  0  0
   -1.2167   -0.1610   -4.7014 H   0  0  0  0  0  0  0  0  0  0  0  0
    2.3113   -0.1269   -0.0339 H   0  0  0  0  0  0  0  0  0  0  0  0
    3.3034   -0.8833   -1.2224 H   0  0  0  0  0  0  0  0  0  0  0  0
    3.2171    0.8756   -1.1952 H   0  0  0  0  0  0  0  0  0  0  0  0
    2.5517   -1.2147   -3.3628 H   0  0  0  0  0  0  0  0  0  0  0  0
    0.1655   -2.4317    1.6117 H   0  0  0  0  0  0  0  0  0  0  0  0
    0.7654   -2.4732    3.2744 H   0  0  0  0  0  0  0  0  0  0  0  0
    4.0666    0.1981    1.6349 H   0  0  0  0  0  0  0  0  0  0  0  0
    4.4814    0.4011    3.3399 H   0  0  0  0  0  0  0  0  0  0  0  0
    0.8645   -1.2768   -5.0361 H   0  0  0  0  0  0  0  0  0  0  0  0
   -1.6158   -2.3078    4.1168 H   0  0  0  0  0  0  0  0  0  0  0  0
   -2.1762   -2.4102    2.4414 H   0  0  0  0  0  0  0  0  0  0  0  0
   -2.2948   -4.6226    3.5539 H   0  0  0  0  0  0  0  0  0  0  0  0
   -0.5633   -4.5620    3.9252 H   0  0  0  0  0  0  0  0  0  0  0  0
   -1.1069   -4.6737    2.2361 H   0  0  0  0  0  0  0  0  0  0  0  0
  1  2  1  0  0  0  0 
  1  3  2  0  0  0  0 
  2  5  1  0  0  0  0 
  4  1  1  0  0  0  0 
  4  6  1  0  0  0  0 
  4  7  1  0  0  0  0 
  5  8  2  0  0  0  0 
  5  9  1  0  0  0  0 
  6 10  1  0  0  0  0 
  6 11  1  0  0  0  0 
  7 12  1  0  0  0  0 
  8 13  1  0  0  0  0 
  8 14  1  0  0  0  0 
  9 15  1  0  0  0  0 
  9 16  2  0  0  0  0 
 10 17  1  0  0  0  0 
 11 18  1  0  0  0  0 
 12 18  1  0  0  0  0 
 14 19  2  0  0  0  0 
 16 19  1  0  0  0  0 
 17 20  1  0  0  0  0 
 20 21  1  0  0  0  0 
  2 22  1  0  0  0  0 
  4 23  1  0  0  0  0 
  7 24  1  0  0  0  0 
  7 25  1  0  0  0  0 
 10 26  1  0  0  0  0 
 10 27  1  0  0  0  0 
 11 28  1  0  0  0  0 
 11 29  1  0  0  0  0 
 12 30  1  0  0  0  0 
 12 31  1  0  0  0  0 
 13 32  1  0  0  0  0 
 13 33  1  0  0  0  0 
 13 34  1  0  0  0  0 
 14 35  1  0  0  0  0 
 15 36  1  0  0  0  0 
 15 37  1  0  0  0  0 
 15 38  1  0  0  0  0 
 16 39  1  0  0  0  0 
 17 40  1  0  0  0  0 
 17 41  1  0  0  0  0 
 18 42  1  0  0  0  0 
 18 43  1  0  0  0  0 
 19 44  1  0  0  0  0 
 20 45  1  0  0  0  0 
 20 46  1  0  0  0  0 
 21 47  1  0  0  0  0 
 21 48  1  0  0  0  0 
 21 49  1  0  0  0  0 
M  END
> <cdk:Title>
levobupivacaine

> <Conformer>
9

> <SuperDrugID>
SD000001

$$$$
levobupivacaine
  CDK     0628171802

 49 50  0  0  0  0  0  0  0  0999 V2000
   -0.2301    2.1732    0.7442 C   0  0  0  0  0  0  0  0  0  0  0  0
   -0.6609    1.8812   -0.5341 N   0  0  0  0  0  0  0  0  0  0  0  0
   -0.8117    3.2119    1.1438 O   0  0  0  0  0  0  0  0  0  0  0  0
    0.7285    1.6033    1.7457 C   0  0  1  0  0  0  0  0  0  0  0  0
   -0.5219    1.0118   -1.6213 C   0  0  0  0  0  0  0  0  0  0  0  0
    0.3423    0.2481    2.2902 N   0  0  2  0  0  0  0  0  0  0  0  0
    2.1948    1.7958    1.2457 C   0  0  1  0  0  0  0  0  0  0  0  0
   -1.2751    1.4709   -2.7645 C   0  0  0  0  0  0  0  0  0  0  0  0
    0.1934   -0.2304   -1.7626 C   0  0  0  0  0  0  0  0  0  0  0  0
   -1.0168    0.2078    2.9551 C   0  0  1  0  0  0  0  0  0  0  0  0
    1.4101   -0.3601    3.1576 C   0  0  1  0  0  0  0  0  0  0  0  0
    3.2323    1.1071    2.1673 C   0  0  2  0  0  0  0  0  0  0  0  0
   -2.1098    2.7164   -2.7686 C   0  0  0  0  0  0  0  0  0  0  0  0
   -1.2710    0.7383   -3.9751 C   0  0  0  0  0  0  0  0  0  0  0  0
    0.9691   -0.9249   -0.7127 C   0  0  0  0  0  0  0  0  0  0  0  0
    0.1745   -0.9202   -3.0031 C   0  0  0  0  0  0  0  0  0  0  0  0
   -1.7475   -1.1674    2.9332 C   0  0  1  0  0  0  0  0  0  0  0  0
    2.8165   -0.3409    2.5139 C   0  0  2  0  0  0  0  0  0  0  0  0
   -0.5445   -0.4439   -4.0976 C   0  0  0  0  0  0  0  0  0  0  0  0
   -2.4318   -1.5270    1.5858 C   0  0  1  0  0  0  0  0  0  0  0  0
   -3.1139   -2.9144    1.6237 C   0  0  0  0  0  0  0  0  0  0  0  0
   -1.3110    2.5612   -0.7575 H   0  0  0  0  0  0  0  0  0  0  0  0
    0.6941    2.2484    2.6351 H   0  0  0  0  0  0  0  0  0  0  0  0
    2.3211    1.4424    0.2281 H   0  0  0  0  0  0  0  0  0  0  0  0
    2.4261    2.8646    1.2158 H   0  0  0  0  0  0  0  0  0  0  0  0
   -0.9126    0.5139    4.0005 H   0  0  0  0  0  0  0  0  0  0  0  0
   -1.7044    0.9283    2.5061 H   0  0  0  0  0  0  0  0  0  0  0  0
    1.4643    0.1714    4.1123 H   0  0  0  0  0  0  0  0  0  0  0  0
    1.1688   -1.4009    3.3769 H   0  0  0  0  0  0  0  0  0  0  0  0
    3.3286    1.6787    3.0959 H   0  0  0  0  0  0  0  0  0  0  0  0
    4.2105    1.0961    1.6786 H   0  0  0  0  0  0  0  0  0  0  0  0
   -1.4817    3.5861   -2.5748 H   0  0  0  0  0  0  0  0  0  0  0  0
   -2.8772    2.6514   -1.9963 H   0  0  0  0  0  0  0  0  0  0  0  0
   -2.6280    2.8969   -3.7130 H   0  0  0  0  0  0  0  0  0  0  0  0
   -1.8026    1.0516   -4.7924 H   0  0  0  0  0  0  0  0  0  0  0  0
    0.4433   -0.8864    0.2192 H   0  0  0  0  0  0  0  0  0  0  0  0
    1.1158   -1.9883   -0.9116 H   0  0  0  0  0  0  0  0  0  0  0  0
    1.9580   -0.4943   -0.6326 H   0  0  0  0  0  0  0  0  0  0  0  0
    0.6841   -1.7996   -3.1339 H   0  0  0  0  0  0  0  0  0  0  0  0
   -1.0591   -1.9654    3.2123 H   0  0  0  0  0  0  0  0  0  0  0  0
   -2.5305   -1.1388    3.6968 H   0  0  0  0  0  0  0  0  0  0  0  0
    2.8190   -0.9594    1.6151 H   0  0  0  0  0  0  0  0  0  0  0  0
    3.5403   -0.7689    3.2120 H   0  0  0  0  0  0  0  0  0  0  0  0
   -0.5436   -0.9635   -4.9807 H   0  0  0  0  0  0  0  0  0  0  0  0
   -3.1919   -0.7770    1.3523 H   0  0  0  0  0  0  0  0  0  0  0  0
   -1.6998   -1.5252    0.7797 H   0  0  0  0  0  0  0  0  0  0  0  0
   -3.6269   -3.0988    0.6788 H   0  0  0  0  0  0  0  0  0  0  0  0
   -3.8477   -2.9561    2.4305 H   0  0  0  0  0  0  0  0  0  0  0  0
   -2.3751   -3.7034    1.7778 H   0  0  0  0  0  0  0  0  0  0  0  0
  1  2  1  0  0  0  0 
  1  3  2  0  0  0  0 
  2  5  1  0  0  0  0 
  4  1  1  0  0  0  0 
  4  6  1  0  0  0  0 
  4  7  1  0  0  0  0 
  5  8  2  0  0  0  0 
  5  9  1  0  0  0  0 
  6 10  1  0  0  0  0 
  6 11  1  0  0  0  0 
  7 12  1  0  0  0  0 
  8 13  1  0  0  0  0 
  8 14  1  0  0  0  0 
  9 15  1  0  0  0  0 
  9 16  2  0  0  0  0 
 10 17  1  0  0  0  0 
 11 18  1  0  0  0  0 
 12 18  1  0  0  0  0 
 14 19  2  0  0  0  0 
 16 19  1  0  0  0  0 
 17 20  1  0  0  0  0 
 20 21  1  0  0  0  0 
  2 22  1  0  0  0  0 
  4 23  1  0  0  0  0 
  7 24  1  0  0  0  0 
  7 25  1  0  0  0  0 
 10 26  1  0  0  0  0 
 10 27  1  0  0  0  0 
 11 28  1  0  0  0  0 
 11 29  1  0  0  0  0 
 12 30  1  0  0  0  0 
 12 31  1  0  0  0  0 
 13 32  1  0  0  0  0 
 13 33  1  0  0  0  0 
 13 34  1  0  0  0  0 
 14 35  1  0  0  0  0 
 15 36  1  0  0  0  0 
 15 37  1  0  0  0  0 
 15 38  1  0  0  0  0 
 16 39  1  0  0  0  0 
 17 40  1  0  0  0  0 
 17 41  1  0  0  0  0 
 18 42  1  0  0  0  0 
 18 43  1  0  0  0  0 
 19 44  1  0  0  0  0 
 20 45  1  0  0  0  0 
 20 46  1  0  0  0  0 
 21 47  1  0  0  0  0 
 21 48  1  0  0  0  0 
 21 49  1  0  0  0  0 
M  END
> <cdk:Title>
levobupivacaine

> <Conformer>
10

> <SuperDrugID>
SD000001

$$$$
