aceclofenac
  CDK     0628171801

 36 37  0  0  0  0  0  0  0  0999 V2000
   -3.9886   -0.2796    1.2719 N   0  0  0  0  0  0  0  0  0  0  0  0
   -5.1711   -0.7230    0.7315 C   0  0  0  0  0  0  0  0  0  0  0  0
   -2.7495   -0.2499    0.7002 C   0  0  0  0  0  0  0  0  0  0  0  0
   -6.3269   -0.8155    1.5637 C   0  0  0  0  0  0  0  0  0  0  0  0
   -5.2821   -1.0668   -0.6398 C   0  0  0  0  0  0  0  0  0  0  0  0
   -2.0896    1.0005    0.5936 C   0  0  0  0  0  0  0  0  0  0  0  0
   -2.0822   -1.4223    0.2567 C   0  0  0  0  0  0  0  0  0  0  0  0
   -6.3083   -0.4141    3.0043 C   0  0  1  0  0  0  0  0  0  0  0  0
   -7.5328   -1.3149    1.0092 C   0  0  0  0  0  0  0  0  0  0  0  0
   -6.4868   -1.5557   -1.1684 C   0  0  0  0  0  0  0  0  0  0  0  0
   -2.8025    2.4444    1.1326 Cl  0  0  0  0  0  0  0  0  0  0  0  0
   -0.8056    1.0771    0.0193 C   0  0  0  0  0  0  0  0  0  0  0  0
   -2.7430   -2.9729    0.4466 Cl  0  0  0  0  0  0  0  0  0  0  0  0
   -0.8028   -1.3277   -0.3255 C   0  0  0  0  0  0  0  0  0  0  0  0
   -6.0568    1.0309    3.1801 C   0  0  0  0  0  0  0  0  0  0  0  0
   -7.6106   -1.6907   -0.3415 C   0  0  0  0  0  0  0  0  0  0  0  0
   -0.1660   -0.0826   -0.4455 C   0  0  0  0  0  0  0  0  0  0  0  0
   -6.9521    1.9323    2.6780 O   0  0  0  0  0  0  0  0  0  0  0  0
   -5.0333    1.4124    3.7956 O   0  0  0  0  0  0  0  0  0  0  0  0
   -6.8294    3.3596    2.7159 C   0  0  2  0  0  0  0  0  0  0  0  0
   -8.0146    3.9685    2.0993 C   0  0  0  0  0  0  0  0  0  0  0  0
   -7.8943    4.7279    0.9844 O   0  0  0  0  0  0  0  0  0  0  0  0
   -9.1476    3.7889    2.5998 O   0  0  0  0  0  0  0  0  0  0  0  0
   -4.0390    0.1108    2.1563 H   0  0  0  0  0  0  0  0  0  0  0  0
   -4.4855   -0.9681   -1.2720 H   0  0  0  0  0  0  0  0  0  0  0  0
   -7.2573   -0.6357    3.4997 H   0  0  0  0  0  0  0  0  0  0  0  0
   -5.5462   -1.0021    3.5219 H   0  0  0  0  0  0  0  0  0  0  0  0
   -8.3723   -1.4104    1.5856 H   0  0  0  0  0  0  0  0  0  0  0  0
   -6.5436   -1.8098   -2.1565 H   0  0  0  0  0  0  0  0  0  0  0  0
   -0.3270    1.9762   -0.0646 H   0  0  0  0  0  0  0  0  0  0  0  0
   -0.3194   -2.1650   -0.6568 H   0  0  0  0  0  0  0  0  0  0  0  0
   -8.4874   -2.0536   -0.7234 H   0  0  0  0  0  0  0  0  0  0  0  0
    0.7650   -0.0217   -0.8641 H   0  0  0  0  0  0  0  0  0  0  0  0
   -5.9316    3.6580    2.1690 H   0  0  0  0  0  0  0  0  0  0  0  0
   -6.7455    3.7081    3.7481 H   0  0  0  0  0  0  0  0  0  0  0  0
   -8.6879    5.1260    0.5676 H   0  0  0  0  0  0  0  0  0  0  0  0
  1  2  1  0  0  0  0 
  1  3  1  0  0  0  0 
  2  4  2  0  0  0  0 
  2  5  1  0  0  0  0 
  3  6  2  0  0  0  0 
  3  7  1  0  0  0  0 
  4  8  1  0  0  0  0 
  4  9  1  0  0  0  0 
  5 10  2  0  0  0  0 
  6 11  1  0  0  0  0 
  6 12  1  0  0  0  0 
  7 13  1  0  0  0  0 
  7 14  2  0  0  0  0 
  8 15  1  0  0  0  0 
  9 16  2  0  0  0  0 
 10 16  1  0  0  0  0 
 12 17  2  0  0  0  0 
 14 17  1  0  0  0  0 
 15 18  1  0  0  0  0 
 15 19  2  0  0  0  0 
 18 20  1  0  0  0  0 
 20 21  1  0  0  0  0 
 21 22  1  0  0  0  0 
 21 23  2  0  0  0  0 
  1 24  1  0  0  0  0 
  5 25  1  0  0  0  0 
  8 26  1  0  0  0  0 
  8 27  1  0  0  0  0 
  9 28  1  0  0  0  0 
 10 29  1  0  0  0  0 
 12 30  1  0  0  0  0 
 14 31  1  0  0  0  0 
 16 32  1  0  0  0  0 
 17 33  1  0  0  0  0 
 20 34  1  0  0  0  0 
 20 35  1  0  0  0  0 
 22 36  1  0  0  0  0 
M  END
> <cdk:Title>
aceclofenac

> <Conformer>
1

> <SuperDrugID>
SD000020

$$$$
aceclofenac
  CDK     0628171801

 36 37  0  0  0  0  0  0  0  0999 V2000
   -4.0037   -0.2622    1.2615 N   0  0  0  0  0  0  0  0  0  0  0  0
   -5.1608   -0.7657    0.7179 C   0  0  0  0  0  0  0  0  0  0  0  0
   -2.7545   -0.2374    0.7049 C   0  0  0  0  0  0  0  0  0  0  0  0
   -6.2553   -1.0919    1.5703 C   0  0  0  0  0  0  0  0  0  0  0  0
   -5.3117   -0.9402   -0.6821 C   0  0  0  0  0  0  0  0  0  0  0  0
   -2.0856    1.0081    0.5989 C   0  0  0  0  0  0  0  0  0  0  0  0
   -2.0884   -1.4156    0.2729 C   0  0  0  0  0  0  0  0  0  0  0  0
   -6.1695   -0.9950    3.0565 C   0  0  1  0  0  0  0  0  0  0  0  0
   -7.4724   -1.5323    0.9923 C   0  0  0  0  0  0  0  0  0  0  0  0
   -6.5227   -1.3886   -1.2370 C   0  0  0  0  0  0  0  0  0  0  0  0
   -2.7884    2.4516    1.1530 Cl  0  0  0  0  0  0  0  0  0  0  0  0
   -0.8047    1.0776    0.0144 C   0  0  0  0  0  0  0  0  0  0  0  0
   -2.7521   -2.9610    0.4861 Cl  0  0  0  0  0  0  0  0  0  0  0  0
   -0.8128   -1.3343   -0.3211 C   0  0  0  0  0  0  0  0  0  0  0  0
   -6.4474    0.3683    3.5420 C   0  0  0  0  0  0  0  0  0  0  0  0
   -7.6106   -1.6712   -0.3985 C   0  0  0  0  0  0  0  0  0  0  0  0
   -0.1779   -0.0888   -0.4566 C   0  0  0  0  0  0  0  0  0  0  0  0
   -5.4757    1.0307    4.2282 O   0  0  0  0  0  0  0  0  0  0  0  0
   -7.5708    0.8898    3.3419 O   0  0  0  0  0  0  0  0  0  0  0  0
   -5.5976    2.3123    4.8494 C   0  0  2  0  0  0  0  0  0  0  0  0
   -4.3124    2.6311    5.4814 C   0  0  0  0  0  0  0  0  0  0  0  0
   -3.7918    1.7907    6.4076 O   0  0  0  0  0  0  0  0  0  0  0  0
   -3.6809    3.6674    5.1773 O   0  0  0  0  0  0  0  0  0  0  0  0
   -4.0823    0.1647    2.1296 H   0  0  0  0  0  0  0  0  0  0  0  0
   -4.5440   -0.7264   -1.3204 H   0  0  0  0  0  0  0  0  0  0  0  0
   -6.8851   -1.6678    3.5394 H   0  0  0  0  0  0  0  0  0  0  0  0
   -5.1826   -1.3231    3.3916 H   0  0  0  0  0  0  0  0  0  0  0  0
   -8.2769   -1.7527    1.5829 H   0  0  0  0  0  0  0  0  0  0  0  0
   -6.6099   -1.5020   -2.2504 H   0  0  0  0  0  0  0  0  0  0  0  0
   -0.3181    1.9734   -0.0710 H   0  0  0  0  0  0  0  0  0  0  0  0
   -0.3340   -2.1767   -0.6518 H   0  0  0  0  0  0  0  0  0  0  0  0
   -8.4997   -1.9800   -0.7986 H   0  0  0  0  0  0  0  0  0  0  0  0
    0.7476   -0.0327   -0.8893 H   0  0  0  0  0  0  0  0  0  0  0  0
   -6.3682    2.2743    5.6207 H   0  0  0  0  0  0  0  0  0  0  0  0
   -5.8753    3.0681    4.1090 H   0  0  0  0  0  0  0  0  0  0  0  0
   -2.9253    1.9858    6.8247 H   0  0  0  0  0  0  0  0  0  0  0  0
  1  2  1  0  0  0  0 
  1  3  1  0  0  0  0 
  2  4  2  0  0  0  0 
  2  5  1  0  0  0  0 
  3  6  2  0  0  0  0 
  3  7  1  0  0  0  0 
  4  8  1  0  0  0  0 
  4  9  1  0  0  0  0 
  5 10  2  0  0  0  0 
  6 11  1  0  0  0  0 
  6 12  1  0  0  0  0 
  7 13  1  0  0  0  0 
  7 14  2  0  0  0  0 
  8 15  1  0  0  0  0 
  9 16  2  0  0  0  0 
 10 16  1  0  0  0  0 
 12 17  2  0  0  0  0 
 14 17  1  0  0  0  0 
 15 18  1  0  0  0  0 
 15 19  2  0  0  0  0 
 18 20  1  0  0  0  0 
 20 21  1  0  0  0  0 
 21 22  1  0  0  0  0 
 21 23  2  0  0  0  0 
  1 24  1  0  0  0  0 
  5 25  1  0  0  0  0 
  8 26  1  0  0  0  0 
  8 27  1  0  0  0  0 
  9 28  1  0  0  0  0 
 10 29  1  0  0  0  0 
 12 30  1  0  0  0  0 
 14 31  1  0  0  0  0 
 16 32  1  0  0  0  0 
 17 33  1  0  0  0  0 
 20 34  1  0  0  0  0 
 20 35  1  0  0  0  0 
 22 36  1  0  0  0  0 
M  END
> <cdk:Title>
aceclofenac

> <Conformer>
2

> <SuperDrugID>
SD000020

$$$$
aceclofenac
  CDK     0628171801

 36 37  0  0  0  0  0  0  0  0999 V2000
   -3.9925   -0.2716    1.2611 N   0  0  0  0  0  0  0  0  0  0  0  0
   -5.1717   -0.7315    0.7268 C   0  0  0  0  0  0  0  0  0  0  0  0
   -2.7491   -0.2471    0.6989 C   0  0  0  0  0  0  0  0  0  0  0  0
   -6.3096   -0.8545    1.5768 C   0  0  0  0  0  0  0  0  0  0  0  0
   -5.3081   -1.0515   -0.6480 C   0  0  0  0  0  0  0  0  0  0  0  0
   -2.0871    1.0030    0.5953 C   0  0  0  0  0  0  0  0  0  0  0  0
   -2.0819   -1.4240    0.2694 C   0  0  0  0  0  0  0  0  0  0  0  0
   -6.2457   -0.5223    3.0290 C   0  0  1  0  0  0  0  0  0  0  0  0
   -7.5410   -1.2916    1.0308 C   0  0  0  0  0  0  0  0  0  0  0  0
   -6.5346   -1.4962   -1.1706 C   0  0  0  0  0  0  0  0  0  0  0  0
   -2.8002    2.4419    1.1491 Cl  0  0  0  0  0  0  0  0  0  0  0  0
   -0.8048    1.0775    0.0165 C   0  0  0  0  0  0  0  0  0  0  0  0
   -2.7446   -2.9716    0.4828 Cl  0  0  0  0  0  0  0  0  0  0  0  0
   -0.8025   -1.3328   -0.3167 C   0  0  0  0  0  0  0  0  0  0  0  0
   -6.2564    0.9384    3.2296 C   0  0  0  0  0  0  0  0  0  0  0  0
   -7.6538   -1.6079   -0.3325 C   0  0  0  0  0  0  0  0  0  0  0  0
   -0.1676   -0.0860   -0.4468 C   0  0  0  0  0  0  0  0  0  0  0  0
   -7.4031    1.6301    2.9509 O   0  0  0  0  0  0  0  0  0  0  0  0
   -5.2322    1.5159    3.6639 O   0  0  0  0  0  0  0  0  0  0  0  0
   -7.6221    3.0475    3.0486 C   0  0  2  0  0  0  0  0  0  0  0  0
   -8.1357    3.6194    1.7960 C   0  0  0  0  0  0  0  0  0  0  0  0
   -8.4530    4.9340    1.7522 O   0  0  0  0  0  0  0  0  0  0  0  0
   -8.2868    2.9249    0.7642 O   0  0  0  0  0  0  0  0  0  0  0  0
   -4.0528    0.1360    2.1383 H   0  0  0  0  0  0  0  0  0  0  0  0
   -4.5175   -0.9549   -1.2879 H   0  0  0  0  0  0  0  0  0  0  0  0
   -7.0892   -0.9432    3.5822 H   0  0  0  0  0  0  0  0  0  0  0  0
   -5.3495   -0.9721    3.4637 H   0  0  0  0  0  0  0  0  0  0  0  0
   -8.3711   -1.3782    1.6222 H   0  0  0  0  0  0  0  0  0  0  0  0
   -6.6125   -1.7331   -2.1633 H   0  0  0  0  0  0  0  0  0  0  0  0
   -0.3273    1.9787   -0.0745 H   0  0  0  0  0  0  0  0  0  0  0  0
   -0.3213   -2.1734   -0.6463 H   0  0  0  0  0  0  0  0  0  0  0  0
   -8.5518   -1.9164   -0.7124 H   0  0  0  0  0  0  0  0  0  0  0  0
    0.7598   -0.0249   -0.8742 H   0  0  0  0  0  0  0  0  0  0  0  0
   -6.7080    3.5808    3.3175 H   0  0  0  0  0  0  0  0  0  0  0  0
   -8.3599    3.2187    3.8343 H   0  0  0  0  0  0  0  0  0  0  0  0
   -8.7915    5.3397    0.9264 H   0  0  0  0  0  0  0  0  0  0  0  0
  1  2  1  0  0  0  0 
  1  3  1  0  0  0  0 
  2  4  2  0  0  0  0 
  2  5  1  0  0  0  0 
  3  6  2  0  0  0  0 
  3  7  1  0  0  0  0 
  4  8  1  0  0  0  0 
  4  9  1  0  0  0  0 
  5 10  2  0  0  0  0 
  6 11  1  0  0  0  0 
  6 12  1  0  0  0  0 
  7 13  1  0  0  0  0 
  7 14  2  0  0  0  0 
  8 15  1  0  0  0  0 
  9 16  2  0  0  0  0 
 10 16  1  0  0  0  0 
 12 17  2  0  0  0  0 
 14 17  1  0  0  0  0 
 15 18  1  0  0  0  0 
 15 19  2  0  0  0  0 
 18 20  1  0  0  0  0 
 20 21  1  0  0  0  0 
 21 22  1  0  0  0  0 
 21 23  2  0  0  0  0 
  1 24  1  0  0  0  0 
  5 25  1  0  0  0  0 
  8 26  1  0  0  0  0 
  8 27  1  0  0  0  0 
  9 28  1  0  0  0  0 
 10 29  1  0  0  0  0 
 12 30  1  0  0  0  0 
 14 31  1  0  0  0  0 
 16 32  1  0  0  0  0 
 17 33  1  0  0  0  0 
 20 34  1  0  0  0  0 
 20 35  1  0  0  0  0 
 22 36  1  0  0  0  0 
M  END
> <cdk:Title>
aceclofenac

> <Conformer>
3

> <SuperDrugID>
SD000020

$$$$
aceclofenac
  CDK     0628171801

 36 37  0  0  0  0  0  0  0  0999 V2000
   -4.0140   -0.2493    1.2445 N   0  0  0  0  0  0  0  0  0  0  0  0
   -5.1752   -0.7742    0.7320 C   0  0  0  0  0  0  0  0  0  0  0  0
   -2.7552   -0.2408    0.7010 C   0  0  0  0  0  0  0  0  0  0  0  0
   -6.3106   -0.9471    1.5804 C   0  0  0  0  0  0  0  0  0  0  0  0
   -5.2925   -1.0958   -0.6448 C   0  0  0  0  0  0  0  0  0  0  0  0
   -2.0842    1.0050    0.5992 C   0  0  0  0  0  0  0  0  0  0  0  0
   -2.0807   -1.4177    0.2746 C   0  0  0  0  0  0  0  0  0  0  0  0
   -6.3099   -0.6207    3.0406 C   0  0  1  0  0  0  0  0  0  0  0  0
   -7.5095   -1.4607    1.0232 C   0  0  0  0  0  0  0  0  0  0  0  0
   -6.4932   -1.5947   -1.1759 C   0  0  0  0  0  0  0  0  0  0  0  0
   -2.7793    2.4497    1.1586 Cl  0  0  0  0  0  0  0  0  0  0  0  0
   -0.8033    1.0772    0.0147 C   0  0  0  0  0  0  0  0  0  0  0  0
   -2.7387   -2.9672    0.4881 Cl  0  0  0  0  0  0  0  0  0  0  0  0
   -0.8012   -1.3308   -0.3135 C   0  0  0  0  0  0  0  0  0  0  0  0
   -7.1238    0.5779    3.3288 C   0  0  0  0  0  0  0  0  0  0  0  0
   -7.6034   -1.7790   -0.3405 C   0  0  0  0  0  0  0  0  0  0  0  0
   -0.1687   -0.0853   -0.4524 C   0  0  0  0  0  0  0  0  0  0  0  0
   -6.5109    1.7863    3.5103 O   0  0  0  0  0  0  0  0  0  0  0  0
   -8.3725    0.4756    3.3883 O   0  0  0  0  0  0  0  0  0  0  0  0
   -7.1747    3.0265    3.7894 C   0  0  2  0  0  0  0  0  0  0  0  0
   -6.1928    4.1107    3.9343 C   0  0  0  0  0  0  0  0  0  0  0  0
   -6.2688    5.2250    3.1678 O   0  0  0  0  0  0  0  0  0  0  0  0
   -5.2826    4.0217    4.7889 O   0  0  0  0  0  0  0  0  0  0  0  0
   -4.1038    0.2372    2.0761 H   0  0  0  0  0  0  0  0  0  0  0  0
   -4.5041   -0.9587   -1.2817 H   0  0  0  0  0  0  0  0  0  0  0  0
   -6.6957   -1.4740    3.6066 H   0  0  0  0  0  0  0  0  0  0  0  0
   -5.3052   -0.4506    3.4258 H   0  0  0  0  0  0  0  0  0  0  0  0
   -8.3334   -1.6079    1.6126 H   0  0  0  0  0  0  0  0  0  0  0  0
   -6.5610   -1.8168   -2.1714 H   0  0  0  0  0  0  0  0  0  0  0  0
   -0.3215    1.9762   -0.0765 H   0  0  0  0  0  0  0  0  0  0  0  0
   -0.3172   -2.1707   -0.6395 H   0  0  0  0  0  0  0  0  0  0  0  0
   -8.4783   -2.1456   -0.7221 H   0  0  0  0  0  0  0  0  0  0  0  0
    0.7565   -0.0226   -0.8858 H   0  0  0  0  0  0  0  0  0  0  0  0
   -7.7425    2.9399    4.7187 H   0  0  0  0  0  0  0  0  0  0  0  0
   -7.8684    3.2579    2.9776 H   0  0  0  0  0  0  0  0  0  0  0  0
   -5.6172    5.9505    3.2803 H   0  0  0  0  0  0  0  0  0  0  0  0
  1  2  1  0  0  0  0 
  1  3  1  0  0  0  0 
  2  4  2  0  0  0  0 
  2  5  1  0  0  0  0 
  3  6  2  0  0  0  0 
  3  7  1  0  0  0  0 
  4  8  1  0  0  0  0 
  4  9  1  0  0  0  0 
  5 10  2  0  0  0  0 
  6 11  1  0  0  0  0 
  6 12  1  0  0  0  0 
  7 13  1  0  0  0  0 
  7 14  2  0  0  0  0 
  8 15  1  0  0  0  0 
  9 16  2  0  0  0  0 
 10 16  1  0  0  0  0 
 12 17  2  0  0  0  0 
 14 17  1  0  0  0  0 
 15 18  1  0  0  0  0 
 15 19  2  0  0  0  0 
 18 20  1  0  0  0  0 
 20 21  1  0  0  0  0 
 21 22  1  0  0  0  0 
 21 23  2  0  0  0  0 
  1 24  1  0  0  0  0 
  5 25  1  0  0  0  0 
  8 26  1  0  0  0  0 
  8 27  1  0  0  0  0 
  9 28  1  0  0  0  0 
 10 29  1  0  0  0  0 
 12 30  1  0  0  0  0 
 14 31  1  0  0  0  0 
 16 32  1  0  0  0  0 
 17 33  1  0  0  0  0 
 20 34  1  0  0  0  0 
 20 35  1  0  0  0  0 
 22 36  1  0  0  0  0 
M  END
> <cdk:Title>
aceclofenac

> <Conformer>
4

> <SuperDrugID>
SD000020

$$$$
aceclofenac
  CDK     0628171801

 36 37  0  0  0  0  0  0  0  0999 V2000
   -4.1695   -0.3572    0.5893 N   0  0  0  0  0  0  0  0  0  0  0  0
   -4.7773   -0.5198    1.8116 C   0  0  0  0  0  0  0  0  0  0  0  0
   -2.8304   -0.2687    0.3504 C   0  0  0  0  0  0  0  0  0  0  0  0
   -6.1721   -0.8170    1.8897 C   0  0  0  0  0  0  0  0  0  0  0  0
   -4.0442   -0.3788    3.0174 C   0  0  0  0  0  0  0  0  0  0  0  0
   -2.1699    0.9836    0.4151 C   0  0  0  0  0  0  0  0  0  0  0  0
   -2.0923   -1.4339    0.0254 C   0  0  0  0  0  0  0  0  0  0  0  0
   -7.0536   -0.9800    0.6945 C   0  0  1  0  0  0  0  0  0  0  0  0
   -6.7768   -0.9572    3.1657 C   0  0  0  0  0  0  0  0  0  0  0  0
   -4.6638   -0.5083    4.2701 C   0  0  0  0  0  0  0  0  0  0  0  0
   -2.9998    2.4166    0.7878 Cl  0  0  0  0  0  0  0  0  0  0  0  0
   -0.7856    1.0598    0.1644 C   0  0  0  0  0  0  0  0  0  0  0  0
   -2.8305   -2.9588   -0.0695 Cl  0  0  0  0  0  0  0  0  0  0  0  0
   -0.7091   -1.3406   -0.2267 C   0  0  0  0  0  0  0  0  0  0  0  0
   -7.9957    0.1516    0.5959 C   0  0  0  0  0  0  0  0  0  0  0  0
   -6.0323   -0.7988    4.3444 C   0  0  0  0  0  0  0  0  0  0  0  0
   -0.0590   -0.0966   -0.1640 C   0  0  0  0  0  0  0  0  0  0  0  0
   -7.4661    1.4010    0.4509 O   0  0  0  0  0  0  0  0  0  0  0  0
   -9.2324   -0.0419    0.6658 O   0  0  0  0  0  0  0  0  0  0  0  0
   -8.1389    2.6617    0.3726 C   0  0  2  0  0  0  0  0  0  0  0  0
   -7.7916    3.2845   -0.9087 C   0  0  0  0  0  0  0  0  0  0  0  0
   -7.0759    4.4325   -0.9473 O   0  0  0  0  0  0  0  0  0  0  0  0
   -8.1444    2.7416   -1.9794 O   0  0  0  0  0  0  0  0  0  0  0  0
   -4.7359   -0.3189   -0.1929 H   0  0  0  0  0  0  0  0  0  0  0  0
   -3.0460   -0.1668    3.0007 H   0  0  0  0  0  0  0  0  0  0  0  0
   -6.4934   -1.0298   -0.2391 H   0  0  0  0  0  0  0  0  0  0  0  0
   -7.5949   -1.9265    0.7745 H   0  0  0  0  0  0  0  0  0  0  0  0
   -7.7743   -1.1745    3.2484 H   0  0  0  0  0  0  0  0  0  0  0  0
   -4.1176   -0.3879    5.1263 H   0  0  0  0  0  0  0  0  0  0  0  0
   -0.2983    1.9571    0.2158 H   0  0  0  0  0  0  0  0  0  0  0  0
   -0.1656   -2.1760   -0.4576 H   0  0  0  0  0  0  0  0  0  0  0  0
   -6.4875   -0.8934    5.2558 H   0  0  0  0  0  0  0  0  0  0  0  0
    0.9429   -0.0325   -0.3579 H   0  0  0  0  0  0  0  0  0  0  0  0
   -7.7863    3.2834    1.1963 H   0  0  0  0  0  0  0  0  0  0  0  0
   -9.2245    2.5684    0.4540 H   0  0  0  0  0  0  0  0  0  0  0  0
   -6.8317    4.8363   -1.8053 H   0  0  0  0  0  0  0  0  0  0  0  0
  1  2  1  0  0  0  0 
  1  3  1  0  0  0  0 
  2  4  2  0  0  0  0 
  2  5  1  0  0  0  0 
  3  6  2  0  0  0  0 
  3  7  1  0  0  0  0 
  4  8  1  0  0  0  0 
  4  9  1  0  0  0  0 
  5 10  2  0  0  0  0 
  6 11  1  0  0  0  0 
  6 12  1  0  0  0  0 
  7 13  1  0  0  0  0 
  7 14  2  0  0  0  0 
  8 15  1  0  0  0  0 
  9 16  2  0  0  0  0 
 10 16  1  0  0  0  0 
 12 17  2  0  0  0  0 
 14 17  1  0  0  0  0 
 15 18  1  0  0  0  0 
 15 19  2  0  0  0  0 
 18 20  1  0  0  0  0 
 20 21  1  0  0  0  0 
 21 22  1  0  0  0  0 
 21 23  2  0  0  0  0 
  1 24  1  0  0  0  0 
  5 25  1  0  0  0  0 
  8 26  1  0  0  0  0 
  8 27  1  0  0  0  0 
  9 28  1  0  0  0  0 
 10 29  1  0  0  0  0 
 12 30  1  0  0  0  0 
 14 31  1  0  0  0  0 
 16 32  1  0  0  0  0 
 17 33  1  0  0  0  0 
 20 34  1  0  0  0  0 
 20 35  1  0  0  0  0 
 22 36  1  0  0  0  0 
M  END
> <cdk:Title>
aceclofenac

> <Conformer>
5

> <SuperDrugID>
SD000020

$$$$
aceclofenac
  CDK     0628171801

 36 37  0  0  0  0  0  0  0  0999 V2000
   -4.1874   -0.2892    0.5959 N   0  0  0  0  0  0  0  0  0  0  0  0
   -4.7610   -0.6806    1.7776 C   0  0  0  0  0  0  0  0  0  0  0  0
   -2.8483   -0.2277    0.3598 C   0  0  0  0  0  0  0  0  0  0  0  0
   -6.0341   -1.3235    1.7836 C   0  0  0  0  0  0  0  0  0  0  0  0
   -4.1058   -0.4360    3.0112 C   0  0  0  0  0  0  0  0  0  0  0  0
   -2.1602    1.0087    0.4246 C   0  0  0  0  0  0  0  0  0  0  0  0
   -2.1406   -1.4087    0.0276 C   0  0  0  0  0  0  0  0  0  0  0  0
   -6.7849   -1.6773    0.5420 C   0  0  1  0  0  0  0  0  0  0  0  0
   -6.6156   -1.6804    3.0277 C   0  0  0  0  0  0  0  0  0  0  0  0
   -4.6948   -0.8065    4.2304 C   0  0  0  0  0  0  0  0  0  0  0  0
   -2.9620    2.4513    0.8190 Cl  0  0  0  0  0  0  0  0  0  0  0  0
   -0.7761    1.0576    0.1605 C   0  0  0  0  0  0  0  0  0  0  0  0
   -2.9156   -2.9163   -0.0709 Cl  0  0  0  0  0  0  0  0  0  0  0  0
   -0.7610   -1.3438   -0.2475 C   0  0  0  0  0  0  0  0  0  0  0  0
   -8.0357   -0.9036    0.4284 C   0  0  0  0  0  0  0  0  0  0  0  0
   -5.9509   -1.4306    4.2400 C   0  0  0  0  0  0  0  0  0  0  0  0
   -0.0813   -0.1153   -0.1836 C   0  0  0  0  0  0  0  0  0  0  0  0
   -9.2355   -1.5373    0.6081 O   0  0  0  0  0  0  0  0  0  0  0  0
   -7.9722    0.3308    0.2147 O   0  0  0  0  0  0  0  0  0  0  0  0
  -10.5339   -0.9505    0.4577 C   0  0  2  0  0  0  0  0  0  0  0  0
  -11.5402   -1.8063    1.1031 C   0  0  0  0  0  0  0  0  0  0  0  0
  -11.8259   -3.0320    0.6081 O   0  0  0  0  0  0  0  0  0  0  0  0
  -12.1479   -1.4188    2.1264 O   0  0  0  0  0  0  0  0  0  0  0  0
   -4.7707   -0.0903   -0.1538 H   0  0  0  0  0  0  0  0  0  0  0  0
   -3.1906    0.0215    3.0346 H   0  0  0  0  0  0  0  0  0  0  0  0
   -6.1979   -1.5130   -0.3634 H   0  0  0  0  0  0  0  0  0  0  0  0
   -7.0097   -2.7471    0.5704 H   0  0  0  0  0  0  0  0  0  0  0  0
   -7.5325   -2.1352    3.0585 H   0  0  0  0  0  0  0  0  0  0  0  0
   -4.2076   -0.6217    5.1104 H   0  0  0  0  0  0  0  0  0  0  0  0
   -0.2652    1.9447    0.2143 H   0  0  0  0  0  0  0  0  0  0  0  0
   -0.2432   -2.1881   -0.4998 H   0  0  0  0  0  0  0  0  0  0  0  0
   -6.3807   -1.7041    5.1276 H   0  0  0  0  0  0  0  0  0  0  0  0
    0.9190   -0.0749   -0.3881 H   0  0  0  0  0  0  0  0  0  0  0  0
  -10.7709   -0.8506   -0.6043 H   0  0  0  0  0  0  0  0  0  0  0  0
  -10.5485    0.0437    0.9127 H   0  0  0  0  0  0  0  0  0  0  0  0
  -12.5095   -3.5875    1.0400 H   0  0  0  0  0  0  0  0  0  0  0  0
  1  2  1  0  0  0  0 
  1  3  1  0  0  0  0 
  2  4  2  0  0  0  0 
  2  5  1  0  0  0  0 
  3  6  2  0  0  0  0 
  3  7  1  0  0  0  0 
  4  8  1  0  0  0  0 
  4  9  1  0  0  0  0 
  5 10  2  0  0  0  0 
  6 11  1  0  0  0  0 
  6 12  1  0  0  0  0 
  7 13  1  0  0  0  0 
  7 14  2  0  0  0  0 
  8 15  1  0  0  0  0 
  9 16  2  0  0  0  0 
 10 16  1  0  0  0  0 
 12 17  2  0  0  0  0 
 14 17  1  0  0  0  0 
 15 18  1  0  0  0  0 
 15 19  2  0  0  0  0 
 18 20  1  0  0  0  0 
 20 21  1  0  0  0  0 
 21 22  1  0  0  0  0 
 21 23  2  0  0  0  0 
  1 24  1  0  0  0  0 
  5 25  1  0  0  0  0 
  8 26  1  0  0  0  0 
  8 27  1  0  0  0  0 
  9 28  1  0  0  0  0 
 10 29  1  0  0  0  0 
 12 30  1  0  0  0  0 
 14 31  1  0  0  0  0 
 16 32  1  0  0  0  0 
 17 33  1  0  0  0  0 
 20 34  1  0  0  0  0 
 20 35  1  0  0  0  0 
 22 36  1  0  0  0  0 
M  END
> <cdk:Title>
aceclofenac

> <Conformer>
6

> <SuperDrugID>
SD000020

$$$$
aceclofenac
  CDK     0628171801

 36 37  0  0  0  0  0  0  0  0999 V2000
   -3.9308   -0.4491    1.3101 N   0  0  0  0  0  0  0  0  0  0  0  0
   -5.1360   -0.3546    0.6617 C   0  0  0  0  0  0  0  0  0  0  0  0
   -2.6992   -0.3350    0.7379 C   0  0  0  0  0  0  0  0  0  0  0  0
   -6.3022    0.0456    1.3808 C   0  0  0  0  0  0  0  0  0  0  0  0
   -5.2456   -0.6556   -0.7207 C   0  0  0  0  0  0  0  0  0  0  0  0
   -2.0446   -1.4592    0.1740 C   0  0  0  0  0  0  0  0  0  0  0  0
   -2.0560    0.9268    0.7196 C   0  0  0  0  0  0  0  0  0  0  0  0
   -6.2859    0.4283    2.8289 C   0  0  1  0  0  0  0  0  0  0  0  0
   -7.5380    0.1081    0.6868 C   0  0  0  0  0  0  0  0  0  0  0  0
   -6.4827   -0.6041   -1.3791 C   0  0  0  0  0  0  0  0  0  0  0  0
   -2.7503   -3.0024    0.1917 Cl  0  0  0  0  0  0  0  0  0  0  0  0
   -0.7744   -1.3103   -0.4202 C   0  0  0  0  0  0  0  0  0  0  0  0
   -2.7910    2.3153    1.3632 Cl  0  0  0  0  0  0  0  0  0  0  0  0
   -0.7754    1.0573    0.1455 C   0  0  0  0  0  0  0  0  0  0  0  0
   -7.0649   -0.5214    3.6462 C   0  0  0  0  0  0  0  0  0  0  0  0
   -7.6334   -0.2352   -0.6710 C   0  0  0  0  0  0  0  0  0  0  0  0
   -0.1384   -0.0572   -0.4266 C   0  0  0  0  0  0  0  0  0  0  0  0
   -8.4176   -0.3599    3.7185 O   0  0  0  0  0  0  0  0  0  0  0  0
   -6.4897   -1.4604    4.2459 O   0  0  0  0  0  0  0  0  0  0  0  0
   -9.3515   -1.2032    4.3981 C   0  0  1  0  0  0  0  0  0  0  0  0
  -10.7025   -0.6579    4.2111 C   0  0  0  0  0  0  0  0  0  0  0  0
  -11.1927   -0.4842    2.9619 O   0  0  0  0  0  0  0  0  0  0  0  0
  -11.4141   -0.3435    5.1916 O   0  0  0  0  0  0  0  0  0  0  0  0
   -3.9446   -0.5449    2.2743 H   0  0  0  0  0  0  0  0  0  0  0  0
   -4.4276   -0.9292   -1.2672 H   0  0  0  0  0  0  0  0  0  0  0  0
   -5.2768    0.4827    3.2384 H   0  0  0  0  0  0  0  0  0  0  0  0
   -6.7080    1.4316    2.9426 H   0  0  0  0  0  0  0  0  0  0  0  0
   -8.3887    0.4052    1.1676 H   0  0  0  0  0  0  0  0  0  0  0  0
   -6.5440   -0.8343   -2.3736 H   0  0  0  0  0  0  0  0  0  0  0  0
   -0.3049   -2.1102   -0.8498 H   0  0  0  0  0  0  0  0  0  0  0  0
   -0.2998    1.9652    0.1344 H   0  0  0  0  0  0  0  0  0  0  0  0
   -8.5383   -0.2098   -1.1473 H   0  0  0  0  0  0  0  0  0  0  0  0
    0.7870    0.0425   -0.8486 H   0  0  0  0  0  0  0  0  0  0  0  0
   -9.3181   -2.2096    3.9777 H   0  0  0  0  0  0  0  0  0  0  0  0
   -9.1000   -1.2517    5.4609 H   0  0  0  0  0  0  0  0  0  0  0  0
  -12.0878   -0.1067    2.8317 H   0  0  0  0  0  0  0  0  0  0  0  0
  1  2  1  0  0  0  0 
  1  3  1  0  0  0  0 
  2  4  2  0  0  0  0 
  2  5  1  0  0  0  0 
  3  6  2  0  0  0  0 
  3  7  1  0  0  0  0 
  4  8  1  0  0  0  0 
  4  9  1  0  0  0  0 
  5 10  2  0  0  0  0 
  6 11  1  0  0  0  0 
  6 12  1  0  0  0  0 
  7 13  1  0  0  0  0 
  7 14  2  0  0  0  0 
  8 15  1  0  0  0  0 
  9 16  2  0  0  0  0 
 10 16  1  0  0  0  0 
 12 17  2  0  0  0  0 
 14 17  1  0  0  0  0 
 15 18  1  0  0  0  0 
 15 19  2  0  0  0  0 
 18 20  1  0  0  0  0 
 20 21  1  0  0  0  0 
 21 22  1  0  0  0  0 
 21 23  2  0  0  0  0 
  1 24  1  0  0  0  0 
  5 25  1  0  0  0  0 
  8 26  1  0  0  0  0 
  8 27  1  0  0  0  0 
  9 28  1  0  0  0  0 
 10 29  1  0  0  0  0 
 12 30  1  0  0  0  0 
 14 31  1  0  0  0  0 
 16 32  1  0  0  0  0 
 17 33  1  0  0  0  0 
 20 34  1  0  0  0  0 
 20 35  1  0  0  0  0 
 22 36  1  0  0  0  0 
M  END
> <cdk:Title>
aceclofenac

> <Conformer>
7

> <SuperDrugID>
SD000020

$$$$
aceclofenac
  CDK     0628171801

 36 37  0  0  0  0  0  0  0  0999 V2000
   -4.1700   -0.3827    0.6111 N   0  0  0  0  0  0  0  0  0  0  0  0
   -4.7191   -0.4991    1.8671 C   0  0  0  0  0  0  0  0  0  0  0  0
   -2.8412   -0.2664    0.3265 C   0  0  0  0  0  0  0  0  0  0  0  0
   -6.0539   -0.9844    2.0203 C   0  0  0  0  0  0  0  0  0  0  0  0
   -3.9835   -0.1423    3.0285 C   0  0  0  0  0  0  0  0  0  0  0  0
   -2.1799    0.9870    0.3953 C   0  0  0  0  0  0  0  0  0  0  0  0
   -2.1094   -1.4242   -0.0381 C   0  0  0  0  0  0  0  0  0  0  0  0
   -6.8981   -1.4647    0.8817 C   0  0  1  0  0  0  0  0  0  0  0  0
   -6.6098   -1.0530    3.3231 C   0  0  0  0  0  0  0  0  0  0  0  0
   -4.5540   -0.2196    4.3088 C   0  0  0  0  0  0  0  0  0  0  0  0
   -3.0204    2.4229    0.7300 Cl  0  0  0  0  0  0  0  0  0  0  0  0
   -0.7880    1.0565    0.1824 C   0  0  0  0  0  0  0  0  0  0  0  0
   -2.8620   -2.9349   -0.2174 Cl  0  0  0  0  0  0  0  0  0  0  0  0
   -0.7203   -1.3381   -0.2569 C   0  0  0  0  0  0  0  0  0  0  0  0
   -7.9749   -0.5257    0.5097 C   0  0  0  0  0  0  0  0  0  0  0  0
   -5.8738   -0.6669    4.4535 C   0  0  0  0  0  0  0  0  0  0  0  0
   -0.0590   -0.1043   -0.1288 C   0  0  0  0  0  0  0  0  0  0  0  0
   -8.0009   -0.0125   -0.7553 O   0  0  0  0  0  0  0  0  0  0  0  0
   -8.8740   -0.2488    1.3395 O   0  0  0  0  0  0  0  0  0  0  0  0
   -8.9985    0.8419   -1.3362 C   0  0  2  0  0  0  0  0  0  0  0  0
   -8.4341    2.1175   -1.8040 C   0  0  0  0  0  0  0  0  0  0  0  0
   -9.2236    2.9822   -2.4792 O   0  0  0  0  0  0  0  0  0  0  0  0
   -7.2408    2.4307   -1.5926 O   0  0  0  0  0  0  0  0  0  0  0  0
   -4.7668   -0.4460   -0.1497 H   0  0  0  0  0  0  0  0  0  0  0  0
   -3.0189    0.1852    2.9600 H   0  0  0  0  0  0  0  0  0  0  0  0
   -6.2912   -1.6780    0.0003 H   0  0  0  0  0  0  0  0  0  0  0  0
   -7.3610   -2.4183    1.1510 H   0  0  0  0  0  0  0  0  0  0  0  0
   -7.5648   -1.3928    3.4623 H   0  0  0  0  0  0  0  0  0  0  0  0
   -4.0091    0.0507    5.1312 H   0  0  0  0  0  0  0  0  0  0  0  0
   -0.2950    1.9513    0.2503 H   0  0  0  0  0  0  0  0  0  0  0  0
   -0.1813   -2.1695   -0.5101 H   0  0  0  0  0  0  0  0  0  0  0  0
   -6.2988   -0.7194    5.3827 H   0  0  0  0  0  0  0  0  0  0  0  0
    0.9546   -0.0507   -0.2684 H   0  0  0  0  0  0  0  0  0  0  0  0
   -9.8085    1.0567   -0.6359 H   0  0  0  0  0  0  0  0  0  0  0  0
   -9.4244    0.3121   -2.1890 H   0  0  0  0  0  0  0  0  0  0  0  0
   -8.8610    3.8349   -2.7913 H   0  0  0  0  0  0  0  0  0  0  0  0
  1  2  1  0  0  0  0 
  1  3  1  0  0  0  0 
  2  4  2  0  0  0  0 
  2  5  1  0  0  0  0 
  3  6  2  0  0  0  0 
  3  7  1  0  0  0  0 
  4  8  1  0  0  0  0 
  4  9  1  0  0  0  0 
  5 10  2  0  0  0  0 
  6 11  1  0  0  0  0 
  6 12  1  0  0  0  0 
  7 13  1  0  0  0  0 
  7 14  2  0  0  0  0 
  8 15  1  0  0  0  0 
  9 16  2  0  0  0  0 
 10 16  1  0  0  0  0 
 12 17  2  0  0  0  0 
 14 17  1  0  0  0  0 
 15 18  1  0  0  0  0 
 15 19  2  0  0  0  0 
 18 20  1  0  0  0  0 
 20 21  1  0  0  0  0 
 21 22  1  0  0  0  0 
 21 23  2  0  0  0  0 
  1 24  1  0  0  0  0 
  5 25  1  0  0  0  0 
  8 26  1  0  0  0  0 
  8 27  1  0  0  0  0 
  9 28  1  0  0  0  0 
 10 29  1  0  0  0  0 
 12 30  1  0  0  0  0 
 14 31  1  0  0  0  0 
 16 32  1  0  0  0  0 
 17 33  1  0  0  0  0 
 20 34  1  0  0  0  0 
 20 35  1  0  0  0  0 
 22 36  1  0  0  0  0 
M  END
> <cdk:Title>
aceclofenac

> <Conformer>
8

> <SuperDrugID>
SD000020

$$$$
aceclofenac
  CDK     0628171801

 36 37  0  0  0  0  0  0  0  0999 V2000
   -4.1756   -0.3506    0.5921 N   0  0  0  0  0  0  0  0  0  0  0  0
   -4.7582   -0.5509    1.8163 C   0  0  0  0  0  0  0  0  0  0  0  0
   -2.8381   -0.2572    0.3483 C   0  0  0  0  0  0  0  0  0  0  0  0
   -6.0456   -1.1606    1.8997 C   0  0  0  0  0  0  0  0  0  0  0  0
   -4.1042   -0.1437    3.0085 C   0  0  0  0  0  0  0  0  0  0  0  0
   -2.1702    0.9915    0.4103 C   0  0  0  0  0  0  0  0  0  0  0  0
   -2.1056   -1.4257    0.0202 C   0  0  0  0  0  0  0  0  0  0  0  0
   -6.7867   -1.6800    0.7051 C   0  0  1  0  0  0  0  0  0  0  0  0
   -6.6450   -1.3054    3.1787 C   0  0  0  0  0  0  0  0  0  0  0  0
   -4.7218   -0.2898    4.2601 C   0  0  0  0  0  0  0  0  0  0  0  0
   -2.9968    2.4270    0.7825 Cl  0  0  0  0  0  0  0  0  0  0  0  0
   -0.7845    1.0579    0.1666 C   0  0  0  0  0  0  0  0  0  0  0  0
   -2.8451   -2.9517   -0.0506 Cl  0  0  0  0  0  0  0  0  0  0  0  0
   -0.7246   -1.3410   -0.2475 C   0  0  0  0  0  0  0  0  0  0  0  0
   -8.0244   -0.9185    0.4525 C   0  0  0  0  0  0  0  0  0  0  0  0
   -5.9989   -0.8597    4.3437 C   0  0  0  0  0  0  0  0  0  0  0  0
   -0.0648   -0.1018   -0.1700 C   0  0  0  0  0  0  0  0  0  0  0  0
   -9.1281   -1.2271    1.1932 O   0  0  0  0  0  0  0  0  0  0  0  0
   -8.0472   -0.0112   -0.4120 O   0  0  0  0  0  0  0  0  0  0  0  0
  -10.4092   -0.5906    1.1560 C   0  0  2  0  0  0  0  0  0  0  0  0
  -11.3222   -1.1674    2.1565 C   0  0  0  0  0  0  0  0  0  0  0  0
  -12.5069   -0.5617    2.4033 O   0  0  0  0  0  0  0  0  0  0  0  0
  -11.0320   -2.1992    2.8032 O   0  0  0  0  0  0  0  0  0  0  0  0
   -4.7545   -0.3286   -0.1845 H   0  0  0  0  0  0  0  0  0  0  0  0
   -3.1744    0.2781    2.9808 H   0  0  0  0  0  0  0  0  0  0  0  0
   -6.1819   -1.6699   -0.2026 H   0  0  0  0  0  0  0  0  0  0  0  0
   -7.0494   -2.7281    0.8707 H   0  0  0  0  0  0  0  0  0  0  0  0
   -7.5643   -1.7447    3.2760 H   0  0  0  0  0  0  0  0  0  0  0  0
   -4.2399    0.0191    5.1082 H   0  0  0  0  0  0  0  0  0  0  0  0
   -0.2883    1.9508    0.2295 H   0  0  0  0  0  0  0  0  0  0  0  0
   -0.1895   -2.1773   -0.4952 H   0  0  0  0  0  0  0  0  0  0  0  0
   -6.4536   -0.9555    5.2549 H   0  0  0  0  0  0  0  0  0  0  0  0
    0.9386   -0.0463   -0.3586 H   0  0  0  0  0  0  0  0  0  0  0  0
  -10.8505   -0.7082    0.1644 H   0  0  0  0  0  0  0  0  0  0  0  0
  -10.2848    0.4733    1.3729 H   0  0  0  0  0  0  0  0  0  0  0  0
  -13.1120   -0.9222    3.0855 H   0  0  0  0  0  0  0  0  0  0  0  0
  1  2  1  0  0  0  0 
  1  3  1  0  0  0  0 
  2  4  2  0  0  0  0 
  2  5  1  0  0  0  0 
  3  6  2  0  0  0  0 
  3  7  1  0  0  0  0 
  4  8  1  0  0  0  0 
  4  9  1  0  0  0  0 
  5 10  2  0  0  0  0 
  6 11  1  0  0  0  0 
  6 12  1  0  0  0  0 
  7 13  1  0  0  0  0 
  7 14  2  0  0  0  0 
  8 15  1  0  0  0  0 
  9 16  2  0  0  0  0 
 10 16  1  0  0  0  0 
 12 17  2  0  0  0  0 
 14 17  1  0  0  0  0 
 15 18  1  0  0  0  0 
 15 19  2  0  0  0  0 
 18 20  1  0  0  0  0 
 20 21  1  0  0  0  0 
 21 22  1  0  0  0  0 
 21 23  2  0  0  0  0 
  1 24  1  0  0  0  0 
  5 25  1  0  0  0  0 
  8 26  1  0  0  0  0 
  8 27  1  0  0  0  0 
  9 28  1  0  0  0  0 
 10 29  1  0  0  0  0 
 12 30  1  0  0  0  0 
 14 31  1  0  0  0  0 
 16 32  1  0  0  0  0 
 17 33  1  0  0  0  0 
 20 34  1  0  0  0  0 
 20 35  1  0  0  0  0 
 22 36  1  0  0  0  0 
M  END
> <cdk:Title>
aceclofenac

> <Conformer>
9

> <SuperDrugID>
SD000020

$$$$
aceclofenac
  CDK     0628171801

 36 37  0  0  0  0  0  0  0  0999 V2000
   -4.1719   -0.3884    0.6126 N   0  0  0  0  0  0  0  0  0  0  0  0
   -4.6996   -0.4938    1.8776 C   0  0  0  0  0  0  0  0  0  0  0  0
   -2.8459   -0.2649    0.3136 C   0  0  0  0  0  0  0  0  0  0  0  0
   -6.0168   -1.0111    2.0609 C   0  0  0  0  0  0  0  0  0  0  0  0
   -3.9540   -0.1085    3.0229 C   0  0  0  0  0  0  0  0  0  0  0  0
   -2.1838    0.9887    0.3844 C   0  0  0  0  0  0  0  0  0  0  0  0
   -2.1125   -1.4263   -0.0399 C   0  0  0  0  0  0  0  0  0  0  0  0
   -6.8639   -1.5211    0.9380 C   0  0  1  0  0  0  0  0  0  0  0  0
   -6.5509   -1.0831    3.3742 C   0  0  0  0  0  0  0  0  0  0  0  0
   -4.4985   -0.1963    4.3126 C   0  0  0  0  0  0  0  0  0  0  0  0
   -3.0228    2.4256    0.7286 Cl  0  0  0  0  0  0  0  0  0  0  0  0
   -0.7898    1.0564    0.1821 C   0  0  0  0  0  0  0  0  0  0  0  0
   -2.8617   -2.9423   -0.2086 Cl  0  0  0  0  0  0  0  0  0  0  0  0
   -0.7204   -1.3409   -0.2434 C   0  0  0  0  0  0  0  0  0  0  0  0
   -7.8782   -0.5475    0.4875 C   0  0  0  0  0  0  0  0  0  0  0  0
   -5.8009   -0.6793    4.4902 C   0  0  0  0  0  0  0  0  0  0  0  0
   -0.0594   -0.1061   -0.1210 C   0  0  0  0  0  0  0  0  0  0  0  0
   -7.9796   -0.2415   -0.8420 O   0  0  0  0  0  0  0  0  0  0  0  0
   -8.6638   -0.0414    1.3239 O   0  0  0  0  0  0  0  0  0  0  0  0
   -8.9348    0.6374   -1.4572 C   0  0  1  0  0  0  0  0  0  0  0  0
   -8.2370    1.7825   -2.0515 C   0  0  0  0  0  0  0  0  0  0  0  0
   -8.4306    2.1241   -3.3453 O   0  0  0  0  0  0  0  0  0  0  0  0
   -7.4575    2.4739   -1.3587 O   0  0  0  0  0  0  0  0  0  0  0  0
   -4.7771   -0.4842   -0.1365 H   0  0  0  0  0  0  0  0  0  0  0  0
   -3.0016    0.2514    2.9366 H   0  0  0  0  0  0  0  0  0  0  0  0
   -6.2530   -1.8292    0.0883 H   0  0  0  0  0  0  0  0  0  0  0  0
   -7.3869   -2.4246    1.2589 H   0  0  0  0  0  0  0  0  0  0  0  0
   -7.4949   -1.4461    3.5332 H   0  0  0  0  0  0  0  0  0  0  0  0
   -3.9436    0.0887    5.1223 H   0  0  0  0  0  0  0  0  0  0  0  0
   -0.2966    1.9496    0.2577 H   0  0  0  0  0  0  0  0  0  0  0  0
   -0.1795   -2.1773   -0.4770 H   0  0  0  0  0  0  0  0  0  0  0  0
   -6.1970   -0.7394    5.4312 H   0  0  0  0  0  0  0  0  0  0  0  0
    0.9535   -0.0531   -0.2581 H   0  0  0  0  0  0  0  0  0  0  0  0
   -9.4811    0.0801   -2.2205 H   0  0  0  0  0  0  0  0  0  0  0  0
   -9.6609    1.0167   -0.7374 H   0  0  0  0  0  0  0  0  0  0  0  0
   -7.9668    2.9012   -3.7264 H   0  0  0  0  0  0  0  0  0  0  0  0
  1  2  1  0  0  0  0 
  1  3  1  0  0  0  0 
  2  4  2  0  0  0  0 
  2  5  1  0  0  0  0 
  3  6  2  0  0  0  0 
  3  7  1  0  0  0  0 
  4  8  1  0  0  0  0 
  4  9  1  0  0  0  0 
  5 10  2  0  0  0  0 
  6 11  1  0  0  0  0 
  6 12  1  0  0  0  0 
  7 13  1  0  0  0  0 
  7 14  2  0  0  0  0 
  8 15  1  0  0  0  0 
  9 16  2  0  0  0  0 
 10 16  1  0  0  0  0 
 12 17  2  0  0  0  0 
 14 17  1  0  0  0  0 
 15 18  1  0  0  0  0 
 15 19  2  0  0  0  0 
 18 20  1  0  0  0  0 
 20 21  1  0  0  0  0 
 21 22  1  0  0  0  0 
 21 23  2  0  0  0  0 
  1 24  1  0  0  0  0 
  5 25  1  0  0  0  0 
  8 26  1  0  0  0  0 
  8 27  1  0  0  0  0 
  9 28  1  0  0  0  0 
 10 29  1  0  0  0  0 
 12 30  1  0  0  0  0 
 14 31  1  0  0  0  0 
 16 32  1  0  0  0  0 
 17 33  1  0  0  0  0 
 20 34  1  0  0  0  0 
 20 35  1  0  0  0  0 
 22 36  1  0  0  0  0 
M  END
> <cdk:Title>
aceclofenac

> <Conformer>
10

> <SuperDrugID>
SD000020

$$$$
