acadesine
  CDK     0628171801

 32 33  0  0  0  0  0  0  0  0999 V2000
    2.7935   -0.7582    0.5293 O   0  0  0  0  0  0  0  0  0  0  0  0
    4.1057   -1.3221    0.4800 C   0  0  1  0  0  0  0  0  0  0  0  0
    4.2042   -2.3653   -0.6595 C   0  0  1  0  0  0  0  0  0  0  0  0
    5.1555   -0.2838    0.0659 C   0  0  2  0  0  0  0  0  0  0  0  0
    4.6964   -1.6753   -1.8236 O   0  0  0  0  0  0  0  0  0  0  0  0
    5.0308   -3.4928   -0.3083 N   0  0  0  0  0  0  0  0  0  0  0  0
    4.8850    1.0140    0.5907 O   0  0  0  0  0  0  0  0  0  0  0  0
    5.0756   -0.3370   -1.4749 C   0  0  2  0  0  0  0  0  0  0  0  0
    4.7309   -4.4579    0.5865 C   0  0  0  0  0  0  0  0  0  0  0  0
    6.2442   -3.7998   -0.8105 C   0  0  0  0  0  0  0  0  0  0  0  0
    6.3870    0.0327   -2.2032 C   0  0  2  0  0  0  0  0  0  0  0  0
    3.6024   -4.5279    1.3265 N   0  0  0  0  0  0  0  0  0  0  0  0
    5.7955   -5.3642    0.6124 C   0  0  0  0  0  0  0  0  0  0  0  0
    6.7157   -4.9271   -0.2612 N   0  0  0  0  0  0  0  0  0  0  0  0
    6.7166    1.4033   -2.0057 O   0  0  0  0  0  0  0  0  0  0  0  0
    5.9371   -6.5334    1.3854 C   0  0  0  0  0  0  0  0  0  0  0  0
    7.0426   -7.2953    1.3055 N   0  0  0  0  0  0  0  0  0  0  0  0
    5.0411   -6.9090    2.1731 O   0  0  0  0  0  0  0  0  0  0  0  0
    2.2104   -1.5063    0.7802 H   0  0  0  0  0  0  0  0  0  0  0  0
    4.3398   -1.7408    1.4634 H   0  0  0  0  0  0  0  0  0  0  0  0
    3.2106   -2.7459   -0.9156 H   0  0  0  0  0  0  0  0  0  0  0  0
    6.1408   -0.6075    0.4161 H   0  0  0  0  0  0  0  0  0  0  0  0
    5.5791    1.5941    0.2133 H   0  0  0  0  0  0  0  0  0  0  0  0
    4.2801    0.3299   -1.8210 H   0  0  0  0  0  0  0  0  0  0  0  0
    6.7552   -3.2596   -1.5115 H   0  0  0  0  0  0  0  0  0  0  0  0
    6.2688   -0.1429   -3.2747 H   0  0  0  0  0  0  0  0  0  0  0  0
    7.2092   -0.5874   -1.8411 H   0  0  0  0  0  0  0  0  0  0  0  0
    2.9263   -3.8361    1.2486 H   0  0  0  0  0  0  0  0  0  0  0  0
    3.4626   -5.2642    1.9408 H   0  0  0  0  0  0  0  0  0  0  0  0
    7.5283    1.5389   -2.5381 H   0  0  0  0  0  0  0  0  0  0  0  0
    7.1175   -8.0990    1.8462 H   0  0  0  0  0  0  0  0  0  0  0  0
    7.7669   -7.0418    0.7125 H   0  0  0  0  0  0  0  0  0  0  0  0
  2  1  1  0  0  0  0 
  2  3  1  0  0  0  0 
  4  2  1  0  0  0  0 
  3  5  1  0  0  0  0 
  3  6  1  0  0  0  0 
  4  7  1  0  0  0  0 
  8  4  1  0  0  0  0 
  8  5  1  0  0  0  0 
  6  9  1  0  0  0  0 
  6 10  1  0  0  0  0 
  8 11  1  0  0  0  0 
  9 12  1  0  0  0  0 
  9 13  2  0  0  0  0 
 10 14  2  0  0  0  0 
 11 15  1  0  0  0  0 
 13 14  1  0  0  0  0 
 13 16  1  0  0  0  0 
 16 17  1  0  0  0  0 
 16 18  2  0  0  0  0 
  1 19  1  0  0  0  0 
  2 20  1  0  0  0  0 
  3 21  1  0  0  0  0 
  4 22  1  0  0  0  0 
  7 23  1  0  0  0  0 
  8 24  1  0  0  0  0 
 10 25  1  0  0  0  0 
 11 26  1  0  0  0  0 
 11 27  1  0  0  0  0 
 12 28  1  0  0  0  0 
 12 29  1  0  0  0  0 
 15 30  1  0  0  0  0 
 17 31  1  0  0  0  0 
 17 32  1  0  0  0  0 
M  END
> <cdk:Title>
acadesine

> <Conformer>
1

> <SuperDrugID>
SD000015

$$$$
acadesine
  CDK     0628171801

 32 33  0  0  0  0  0  0  0  0999 V2000
    2.8136   -0.7181    0.4937 O   0  0  0  0  0  0  0  0  0  0  0  0
    4.1157   -1.3010    0.4493 C   0  0  1  0  0  0  0  0  0  0  0  0
    4.1913   -2.3722   -0.6655 C   0  0  1  0  0  0  0  0  0  0  0  0
    5.1731   -0.2890   -0.0042 C   0  0  2  0  0  0  0  0  0  0  0  0
    4.6680   -1.7107   -1.8530 O   0  0  0  0  0  0  0  0  0  0  0  0
    5.0263   -3.4917   -0.3027 N   0  0  0  0  0  0  0  0  0  0  0  0
    4.9596    1.0207    0.5187 O   0  0  0  0  0  0  0  0  0  0  0  0
    5.0380   -0.3612   -1.5390 C   0  0  2  0  0  0  0  0  0  0  0  0
    4.7340   -4.4590    0.5931 C   0  0  0  0  0  0  0  0  0  0  0  0
    6.2437   -3.7899   -0.8020 C   0  0  0  0  0  0  0  0  0  0  0  0
    6.3217    0.0404   -2.3006 C   0  0  2  0  0  0  0  0  0  0  0  0
    3.6071   -4.5308    1.3347 N   0  0  0  0  0  0  0  0  0  0  0  0
    5.7962   -5.3681    0.6108 C   0  0  0  0  0  0  0  0  0  0  0  0
    6.7163   -4.9232   -0.2614 N   0  0  0  0  0  0  0  0  0  0  0  0
    6.2037   -0.2752   -3.6825 O   0  0  0  0  0  0  0  0  0  0  0  0
    5.9280   -6.5422    1.3835 C   0  0  0  0  0  0  0  0  0  0  0  0
    7.0042   -7.3437    1.2734 N   0  0  0  0  0  0  0  0  0  0  0  0
    5.0438   -6.8929    2.1967 O   0  0  0  0  0  0  0  0  0  0  0  0
    2.2216   -1.4527    0.7620 H   0  0  0  0  0  0  0  0  0  0  0  0
    4.3501   -1.6916    1.4424 H   0  0  0  0  0  0  0  0  0  0  0  0
    3.1907   -2.7522   -0.8967 H   0  0  0  0  0  0  0  0  0  0  0  0
    6.1601   -0.6382    0.3155 H   0  0  0  0  0  0  0  0  0  0  0  0
    5.6864    1.5654    0.1474 H   0  0  0  0  0  0  0  0  0  0  0  0
    4.2183    0.2838   -1.8700 H   0  0  0  0  0  0  0  0  0  0  0  0
    6.7561   -3.2435   -1.4986 H   0  0  0  0  0  0  0  0  0  0  0  0
    7.1849   -0.4937   -1.9003 H   0  0  0  0  0  0  0  0  0  0  0  0
    6.4911    1.1128   -2.1998 H   0  0  0  0  0  0  0  0  0  0  0  0
    2.9359   -3.8343    1.2656 H   0  0  0  0  0  0  0  0  0  0  0  0
    3.4611   -5.2784    1.9355 H   0  0  0  0  0  0  0  0  0  0  0  0
    7.0779   -0.0541   -4.0670 H   0  0  0  0  0  0  0  0  0  0  0  0
    7.0627   -8.1449    1.8165 H   0  0  0  0  0  0  0  0  0  0  0  0
    7.7198   -7.1300    0.6542 H   0  0  0  0  0  0  0  0  0  0  0  0
  2  1  1  0  0  0  0 
  2  3  1  0  0  0  0 
  4  2  1  0  0  0  0 
  3  5  1  0  0  0  0 
  3  6  1  0  0  0  0 
  4  7  1  0  0  0  0 
  8  4  1  0  0  0  0 
  8  5  1  0  0  0  0 
  6  9  1  0  0  0  0 
  6 10  1  0  0  0  0 
  8 11  1  0  0  0  0 
  9 12  1  0  0  0  0 
  9 13  2  0  0  0  0 
 10 14  2  0  0  0  0 
 11 15  1  0  0  0  0 
 13 14  1  0  0  0  0 
 13 16  1  0  0  0  0 
 16 17  1  0  0  0  0 
 16 18  2  0  0  0  0 
  1 19  1  0  0  0  0 
  2 20  1  0  0  0  0 
  3 21  1  0  0  0  0 
  4 22  1  0  0  0  0 
  7 23  1  0  0  0  0 
  8 24  1  0  0  0  0 
 10 25  1  0  0  0  0 
 11 26  1  0  0  0  0 
 11 27  1  0  0  0  0 
 12 28  1  0  0  0  0 
 12 29  1  0  0  0  0 
 15 30  1  0  0  0  0 
 17 31  1  0  0  0  0 
 17 32  1  0  0  0  0 
M  END
> <cdk:Title>
acadesine

> <Conformer>
2

> <SuperDrugID>
SD000015

$$$$
acadesine
  CDK     0628171801

 32 33  0  0  0  0  0  0  0  0999 V2000
    2.6260   -1.1200    0.6234 O   0  0  0  0  0  0  0  0  0  0  0  0
    3.9932   -1.5271    0.5649 C   0  0  1  0  0  0  0  0  0  0  0  0
    4.2311   -2.5203   -0.6019 C   0  0  1  0  0  0  0  0  0  0  0  0
    4.9162   -0.3564    0.2074 C   0  0  2  0  0  0  0  0  0  0  0  0
    4.6996   -1.7490   -1.7272 O   0  0  0  0  0  0  0  0  0  0  0  0
    5.1522   -3.5816   -0.2653 N   0  0  0  0  0  0  0  0  0  0  0  0
    4.4792    0.8947    0.7335 O   0  0  0  0  0  0  0  0  0  0  0  0
    4.9116   -0.3863   -1.3346 C   0  0  2  0  0  0  0  0  0  0  0  0
    4.9556   -4.5697    0.6341 C   0  0  0  0  0  0  0  0  0  0  0  0
    6.3740   -3.7913   -0.7996 C   0  0  0  0  0  0  0  0  0  0  0  0
    6.2028    0.1786   -1.9726 C   0  0  2  0  0  0  0  0  0  0  0  0
    3.8530   -4.7364    1.3982 N   0  0  0  0  0  0  0  0  0  0  0  0
    6.0934   -5.3821    0.6344 C   0  0  0  0  0  0  0  0  0  0  0  0
    6.9541   -4.8733   -0.2635 N   0  0  0  0  0  0  0  0  0  0  0  0
    7.3613   -0.5269   -1.5347 O   0  0  0  0  0  0  0  0  0  0  0  0
    6.3470   -6.5381    1.3998 C   0  0  0  0  0  0  0  0  0  0  0  0
    7.5233   -7.1832    1.3015 N   0  0  0  0  0  0  0  0  0  0  0  0
    5.4963   -7.0098    2.1865 O   0  0  0  0  0  0  0  0  0  0  0  0
    2.1346   -1.9393    0.8420 H   0  0  0  0  0  0  0  0  0  0  0  0
    4.2689   -1.9412    1.5383 H   0  0  0  0  0  0  0  0  0  0  0  0
    3.2847   -2.9818   -0.9019 H   0  0  0  0  0  0  0  0  0  0  0  0
    5.9159   -0.5583    0.6044 H   0  0  0  0  0  0  0  0  0  0  0  0
    5.1319    1.5455    0.3971 H   0  0  0  0  0  0  0  0  0  0  0  0
    4.0581    0.1953   -1.7010 H   0  0  0  0  0  0  0  0  0  0  0  0
    6.8139   -3.2173   -1.5207 H   0  0  0  0  0  0  0  0  0  0  0  0
    6.3123    1.2326   -1.7095 H   0  0  0  0  0  0  0  0  0  0  0  0
    6.1425    0.0976   -3.0581 H   0  0  0  0  0  0  0  0  0  0  0  0
    3.1195   -4.1063    1.3357 H   0  0  0  0  0  0  0  0  0  0  0  0
    3.7881   -5.4814    2.0141 H   0  0  0  0  0  0  0  0  0  0  0  0
    8.1169   -0.0503   -1.9388 H   0  0  0  0  0  0  0  0  0  0  0  0
    7.6795   -7.9899    1.8178 H   0  0  0  0  0  0  0  0  0  0  0  0
    8.2165   -6.8448    0.7129 H   0  0  0  0  0  0  0  0  0  0  0  0
  2  1  1  0  0  0  0 
  2  3  1  0  0  0  0 
  4  2  1  0  0  0  0 
  3  5  1  0  0  0  0 
  3  6  1  0  0  0  0 
  4  7  1  0  0  0  0 
  8  4  1  0  0  0  0 
  8  5  1  0  0  0  0 
  6  9  1  0  0  0  0 
  6 10  1  0  0  0  0 
  8 11  1  0  0  0  0 
  9 12  1  0  0  0  0 
  9 13  2  0  0  0  0 
 10 14  2  0  0  0  0 
 11 15  1  0  0  0  0 
 13 14  1  0  0  0  0 
 13 16  1  0  0  0  0 
 16 17  1  0  0  0  0 
 16 18  2  0  0  0  0 
  1 19  1  0  0  0  0 
  2 20  1  0  0  0  0 
  3 21  1  0  0  0  0 
  4 22  1  0  0  0  0 
  7 23  1  0  0  0  0 
  8 24  1  0  0  0  0 
 10 25  1  0  0  0  0 
 11 26  1  0  0  0  0 
 11 27  1  0  0  0  0 
 12 28  1  0  0  0  0 
 12 29  1  0  0  0  0 
 15 30  1  0  0  0  0 
 17 31  1  0  0  0  0 
 17 32  1  0  0  0  0 
M  END
> <cdk:Title>
acadesine

> <Conformer>
3

> <SuperDrugID>
SD000015

$$$$
acadesine
  CDK     0628171801

 32 33  0  0  0  0  0  0  0  0999 V2000
    2.7646   -0.7657    0.5068 O   0  0  0  0  0  0  0  0  0  0  0  0
    4.0794   -1.3243    0.4691 C   0  0  1  0  0  0  0  0  0  0  0  0
    4.1970   -2.3787   -0.6589 C   0  0  1  0  0  0  0  0  0  0  0  0
    5.1236   -0.2814    0.0516 C   0  0  2  0  0  0  0  0  0  0  0  0
    4.6832   -1.6948   -1.8279 O   0  0  0  0  0  0  0  0  0  0  0  0
    5.0349   -3.4969   -0.2999 N   0  0  0  0  0  0  0  0  0  0  0  0
    4.8452    1.0206    0.5629 O   0  0  0  0  0  0  0  0  0  0  0  0
    5.0445   -0.3488   -1.4881 C   0  0  2  0  0  0  0  0  0  0  0  0
    4.7335   -4.4658    0.5922 C   0  0  0  0  0  0  0  0  0  0  0  0
    6.2561   -3.7914   -0.7915 C   0  0  0  0  0  0  0  0  0  0  0  0
    6.3572    0.0303   -2.2139 C   0  0  2  0  0  0  0  0  0  0  0  0
    3.6011   -4.5153    1.3275 N   0  0  0  0  0  0  0  0  0  0  0  0
    5.7951   -5.3747    0.6110 C   0  0  0  0  0  0  0  0  0  0  0  0
    6.7261   -4.9204   -0.2446 N   0  0  0  0  0  0  0  0  0  0  0  0
    6.6909    1.3972   -1.9995 O   0  0  0  0  0  0  0  0  0  0  0  0
    5.9473   -6.5706    1.3422 C   0  0  0  0  0  0  0  0  0  0  0  0
    4.9434   -7.1626    2.0132 N   0  0  0  0  0  0  0  0  0  0  0  0
    7.0620   -7.1406    1.3665 O   0  0  0  0  0  0  0  0  0  0  0  0
    2.1771   -1.5141    0.7464 H   0  0  0  0  0  0  0  0  0  0  0  0
    4.3108   -1.7297    1.4576 H   0  0  0  0  0  0  0  0  0  0  0  0
    3.2083   -2.7701   -0.9165 H   0  0  0  0  0  0  0  0  0  0  0  0
    6.1110   -0.5941    0.4072 H   0  0  0  0  0  0  0  0  0  0  0  0
    5.5375    1.5964    0.1753 H   0  0  0  0  0  0  0  0  0  0  0  0
    4.2428    0.3095   -1.8423 H   0  0  0  0  0  0  0  0  0  0  0  0
    6.7710   -3.2432   -1.4833 H   0  0  0  0  0  0  0  0  0  0  0  0
    6.2362   -0.1320   -3.2869 H   0  0  0  0  0  0  0  0  0  0  0  0
    7.1807   -0.5948   -1.8622 H   0  0  0  0  0  0  0  0  0  0  0  0
    2.9293   -3.8213    1.2312 H   0  0  0  0  0  0  0  0  0  0  0  0
    3.4558   -5.2315    1.9625 H   0  0  0  0  0  0  0  0  0  0  0  0
    7.5202    1.5330   -2.5049 H   0  0  0  0  0  0  0  0  0  0  0  0
    5.1088   -7.9882    2.4935 H   0  0  0  0  0  0  0  0  0  0  0  0
    4.0535   -6.7820    2.0119 H   0  0  0  0  0  0  0  0  0  0  0  0
  2  1  1  0  0  0  0 
  2  3  1  0  0  0  0 
  4  2  1  0  0  0  0 
  3  5  1  0  0  0  0 
  3  6  1  0  0  0  0 
  4  7  1  0  0  0  0 
  8  4  1  0  0  0  0 
  8  5  1  0  0  0  0 
  6  9  1  0  0  0  0 
  6 10  1  0  0  0  0 
  8 11  1  0  0  0  0 
  9 12  1  0  0  0  0 
  9 13  2  0  0  0  0 
 10 14  2  0  0  0  0 
 11 15  1  0  0  0  0 
 13 14  1  0  0  0  0 
 13 16  1  0  0  0  0 
 16 17  1  0  0  0  0 
 16 18  2  0  0  0  0 
  1 19  1  0  0  0  0 
  2 20  1  0  0  0  0 
  3 21  1  0  0  0  0 
  4 22  1  0  0  0  0 
  7 23  1  0  0  0  0 
  8 24  1  0  0  0  0 
 10 25  1  0  0  0  0 
 11 26  1  0  0  0  0 
 11 27  1  0  0  0  0 
 12 28  1  0  0  0  0 
 12 29  1  0  0  0  0 
 15 30  1  0  0  0  0 
 17 31  1  0  0  0  0 
 17 32  1  0  0  0  0 
M  END
> <cdk:Title>
acadesine

> <Conformer>
4

> <SuperDrugID>
SD000015

$$$$
acadesine
  CDK     0628171801

 32 33  0  0  0  0  0  0  0  0999 V2000
    2.7870   -0.7266    0.4519 O   0  0  0  0  0  0  0  0  0  0  0  0
    4.0960   -1.2958    0.4265 C   0  0  1  0  0  0  0  0  0  0  0  0
    4.1870   -2.3871   -0.6674 C   0  0  1  0  0  0  0  0  0  0  0  0
    5.1457   -0.2824   -0.0440 C   0  0  2  0  0  0  0  0  0  0  0  0
    4.6545   -1.7472   -1.8682 O   0  0  0  0  0  0  0  0  0  0  0  0
    5.0285   -3.4966   -0.2928 N   0  0  0  0  0  0  0  0  0  0  0  0
    4.9140    1.0456    0.4215 O   0  0  0  0  0  0  0  0  0  0  0  0
    5.0358   -0.3969   -1.5780 C   0  0  2  0  0  0  0  0  0  0  0  0
    4.7302   -4.4668    0.5978 C   0  0  0  0  0  0  0  0  0  0  0  0
    6.2521   -3.7859   -0.7796 C   0  0  0  0  0  0  0  0  0  0  0  0
    6.3381   -0.0302   -2.3213 C   0  0  2  0  0  0  0  0  0  0  0  0
    3.6024   -4.5227    1.3368 N   0  0  0  0  0  0  0  0  0  0  0  0
    5.7925   -5.3760    0.6102 C   0  0  0  0  0  0  0  0  0  0  0  0
    6.7231   -4.9164   -0.2407 N   0  0  0  0  0  0  0  0  0  0  0  0
    6.2048   -0.2851   -3.7140 O   0  0  0  0  0  0  0  0  0  0  0  0
    5.9501   -6.5760    1.3322 C   0  0  0  0  0  0  0  0  0  0  0  0
    4.9550   -7.1741    2.0093 N   0  0  0  0  0  0  0  0  0  0  0  0
    7.0623   -7.1492    1.3361 O   0  0  0  0  0  0  0  0  0  0  0  0
    2.2019   -1.4602    0.7378 H   0  0  0  0  0  0  0  0  0  0  0  0
    4.3322   -1.6684    1.4277 H   0  0  0  0  0  0  0  0  0  0  0  0
    3.1928   -2.7840   -0.8910 H   0  0  0  0  0  0  0  0  0  0  0  0
    6.1308   -0.6084    0.3046 H   0  0  0  0  0  0  0  0  0  0  0  0
    5.6388    1.5821    0.0336 H   0  0  0  0  0  0  0  0  0  0  0  0
    4.2353    0.2548   -1.9422 H   0  0  0  0  0  0  0  0  0  0  0  0
    6.7680   -3.2388   -1.4701 H   0  0  0  0  0  0  0  0  0  0  0  0
    7.1724   -0.6209   -1.9399 H   0  0  0  0  0  0  0  0  0  0  0  0
    6.5569    1.0287   -2.1792 H   0  0  0  0  0  0  0  0  0  0  0  0
    2.9408   -3.8188    1.2598 H   0  0  0  0  0  0  0  0  0  0  0  0
    3.4526   -5.2487    1.9580 H   0  0  0  0  0  0  0  0  0  0  0  0
    7.0771   -0.0536   -4.0960 H   0  0  0  0  0  0  0  0  0  0  0  0
    5.1295   -8.0012    2.4861 H   0  0  0  0  0  0  0  0  0  0  0  0
    4.0646   -6.7950    2.0195 H   0  0  0  0  0  0  0  0  0  0  0  0
  2  1  1  0  0  0  0 
  2  3  1  0  0  0  0 
  4  2  1  0  0  0  0 
  3  5  1  0  0  0  0 
  3  6  1  0  0  0  0 
  4  7  1  0  0  0  0 
  8  4  1  0  0  0  0 
  8  5  1  0  0  0  0 
  6  9  1  0  0  0  0 
  6 10  1  0  0  0  0 
  8 11  1  0  0  0  0 
  9 12  1  0  0  0  0 
  9 13  2  0  0  0  0 
 10 14  2  0  0  0  0 
 11 15  1  0  0  0  0 
 13 14  1  0  0  0  0 
 13 16  1  0  0  0  0 
 16 17  1  0  0  0  0 
 16 18  2  0  0  0  0 
  1 19  1  0  0  0  0 
  2 20  1  0  0  0  0 
  3 21  1  0  0  0  0 
  4 22  1  0  0  0  0 
  7 23  1  0  0  0  0 
  8 24  1  0  0  0  0 
 10 25  1  0  0  0  0 
 11 26  1  0  0  0  0 
 11 27  1  0  0  0  0 
 12 28  1  0  0  0  0 
 12 29  1  0  0  0  0 
 15 30  1  0  0  0  0 
 17 31  1  0  0  0  0 
 17 32  1  0  0  0  0 
M  END
> <cdk:Title>
acadesine

> <Conformer>
5

> <SuperDrugID>
SD000015

$$$$
acadesine
  CDK     0628171801

 32 33  0  0  0  0  0  0  0  0999 V2000
    4.2142   -0.0999   -1.3847 O   0  0  0  0  0  0  0  0  0  0  0  0
    4.0501   -1.5127   -1.2618 C   0  0  1  0  0  0  0  0  0  0  0  0
    4.4542   -1.9941    0.1557 C   0  0  1  0  0  0  0  0  0  0  0  0
    2.5752   -1.9158   -1.3276 C   0  0  2  0  0  0  0  0  0  0  0  0
    3.2591   -1.9473    0.9567 O   0  0  0  0  0  0  0  0  0  0  0  0
    5.0948   -3.2918    0.1548 N   0  0  0  0  0  0  0  0  0  0  0  0
    1.8299   -1.1793   -2.2945 O   0  0  0  0  0  0  0  0  0  0  0  0
    2.1287   -1.6509    0.1230 C   0  0  2  0  0  0  0  0  0  0  0  0
    4.7211   -4.4467    0.7550 C   0  0  0  0  0  0  0  0  0  0  0  0
    6.2664   -3.5497   -0.4626 C   0  0  0  0  0  0  0  0  0  0  0  0
    0.8893   -2.4688    0.5505 C   0  0  2  0  0  0  0  0  0  0  0  0
    3.6231   -4.6518    1.5171 N   0  0  0  0  0  0  0  0  0  0  0  0
    5.6977   -5.4095    0.4755 C   0  0  0  0  0  0  0  0  0  0  0  0
    6.6353   -4.8246   -0.2855 N   0  0  0  0  0  0  0  0  0  0  0  0
    0.6217   -2.2730    1.9358 O   0  0  0  0  0  0  0  0  0  0  0  0
    5.7635   -6.7532    0.8986 C   0  0  0  0  0  0  0  0  0  0  0  0
    6.8621   -7.4935    0.6695 N   0  0  0  0  0  0  0  0  0  0  0  0
    4.8185   -7.3039    1.5063 O   0  0  0  0  0  0  0  0  0  0  0  0
    5.1744    0.0528   -1.2557 H   0  0  0  0  0  0  0  0  0  0  0  0
    4.6190   -1.9923   -2.0601 H   0  0  0  0  0  0  0  0  0  0  0  0
    5.1589   -1.2861    0.6009 H   0  0  0  0  0  0  0  0  0  0  0  0
    2.5041   -2.9812   -1.5669 H   0  0  0  0  0  0  0  0  0  0  0  0
    0.9450   -1.6022   -2.3060 H   0  0  0  0  0  0  0  0  0  0  0  0
    1.8992   -0.5882    0.2493 H   0  0  0  0  0  0  0  0  0  0  0  0
    6.8168   -2.8726   -0.9969 H   0  0  0  0  0  0  0  0  0  0  0  0
    1.0587   -3.5330    0.3775 H   0  0  0  0  0  0  0  0  0  0  0  0
    0.0180   -2.1545   -0.0292 H   0  0  0  0  0  0  0  0  0  0  0  0
    2.9605   -3.9550    1.6329 H   0  0  0  0  0  0  0  0  0  0  0  0
    3.4888   -5.5018    1.9612 H   0  0  0  0  0  0  0  0  0  0  0  0
   -0.1565   -2.8373    2.1249 H   0  0  0  0  0  0  0  0  0  0  0  0
    6.9043   -8.4100    0.9836 H   0  0  0  0  0  0  0  0  0  0  0  0
    7.6166   -7.1142    0.1939 H   0  0  0  0  0  0  0  0  0  0  0  0
  2  1  1  0  0  0  0 
  2  3  1  0  0  0  0 
  4  2  1  0  0  0  0 
  3  5  1  0  0  0  0 
  3  6  1  0  0  0  0 
  4  7  1  0  0  0  0 
  8  4  1  0  0  0  0 
  8  5  1  0  0  0  0 
  6  9  1  0  0  0  0 
  6 10  1  0  0  0  0 
  8 11  1  0  0  0  0 
  9 12  1  0  0  0  0 
  9 13  2  0  0  0  0 
 10 14  2  0  0  0  0 
 11 15  1  0  0  0  0 
 13 14  1  0  0  0  0 
 13 16  1  0  0  0  0 
 16 17  1  0  0  0  0 
 16 18  2  0  0  0  0 
  1 19  1  0  0  0  0 
  2 20  1  0  0  0  0 
  3 21  1  0  0  0  0 
  4 22  1  0  0  0  0 
  7 23  1  0  0  0  0 
  8 24  1  0  0  0  0 
 10 25  1  0  0  0  0 
 11 26  1  0  0  0  0 
 11 27  1  0  0  0  0 
 12 28  1  0  0  0  0 
 12 29  1  0  0  0  0 
 15 30  1  0  0  0  0 
 17 31  1  0  0  0  0 
 17 32  1  0  0  0  0 
M  END
> <cdk:Title>
acadesine

> <Conformer>
6

> <SuperDrugID>
SD000015

$$$$
acadesine
  CDK     0628171801

 32 33  0  0  0  0  0  0  0  0999 V2000
    4.3101   -0.1669   -1.4156 O   0  0  0  0  0  0  0  0  0  0  0  0
    4.1323   -1.5773   -1.2752 C   0  0  1  0  0  0  0  0  0  0  0  0
    4.4893   -2.0374    0.1616 C   0  0  1  0  0  0  0  0  0  0  0  0
    2.6559   -1.9684   -1.3793 C   0  0  2  0  0  0  0  0  0  0  0  0
    3.2756   -1.9221    0.9284 O   0  0  0  0  0  0  0  0  0  0  0  0
    5.0793   -3.3580    0.1996 N   0  0  0  0  0  0  0  0  0  0  0  0
    1.9625   -1.2261   -2.3803 O   0  0  0  0  0  0  0  0  0  0  0  0
    2.1612   -1.6822    0.0534 C   0  0  2  0  0  0  0  0  0  0  0  0
    4.6624   -4.4824    0.8277 C   0  0  0  0  0  0  0  0  0  0  0  0
    6.2407   -3.6756   -0.4084 C   0  0  0  0  0  0  0  0  0  0  0  0
    0.9485   -2.5372    0.4892 C   0  0  2  0  0  0  0  0  0  0  0  0
    3.5697   -4.6299    1.6073 N   0  0  0  0  0  0  0  0  0  0  0  0
    5.5905   -5.4925    0.5512 C   0  0  0  0  0  0  0  0  0  0  0  0
    6.5572   -4.9611   -0.2116 N   0  0  0  0  0  0  0  0  0  0  0  0
   -0.2038   -2.2413   -0.2901 O   0  0  0  0  0  0  0  0  0  0  0  0
    5.5883   -6.8380    0.9744 C   0  0  0  0  0  0  0  0  0  0  0  0
    6.6489   -7.6311    0.7414 N   0  0  0  0  0  0  0  0  0  0  0  0
    4.6148   -7.3408    1.5792 O   0  0  0  0  0  0  0  0  0  0  0  0
    5.2712   -0.0211   -1.2881 H   0  0  0  0  0  0  0  0  0  0  0  0
    4.7198   -2.0757   -2.0513 H   0  0  0  0  0  0  0  0  0  0  0  0
    5.2137   -1.3459    0.6049 H   0  0  0  0  0  0  0  0  0  0  0  0
    2.5812   -3.0361   -1.6149 H   0  0  0  0  0  0  0  0  0  0  0  0
    1.0506   -1.5842   -2.3768 H   0  0  0  0  0  0  0  0  0  0  0  0
    1.8960   -0.6232    0.1465 H   0  0  0  0  0  0  0  0  0  0  0  0
    6.8202   -3.0315   -0.9517 H   0  0  0  0  0  0  0  0  0  0  0  0
    0.7214   -2.3349    1.5387 H   0  0  0  0  0  0  0  0  0  0  0  0
    1.1728   -3.6004    0.3764 H   0  0  0  0  0  0  0  0  0  0  0  0
    2.9507   -3.8975    1.7333 H   0  0  0  0  0  0  0  0  0  0  0  0
    3.4033   -5.4708    2.0587 H   0  0  0  0  0  0  0  0  0  0  0  0
   -0.9082   -2.8124    0.0834 H   0  0  0  0  0  0  0  0  0  0  0  0
    6.6368   -8.5566    1.0317 H   0  0  0  0  0  0  0  0  0  0  0  0
    7.4281   -7.2781    0.2836 H   0  0  0  0  0  0  0  0  0  0  0  0
  2  1  1  0  0  0  0 
  2  3  1  0  0  0  0 
  4  2  1  0  0  0  0 
  3  5  1  0  0  0  0 
  3  6  1  0  0  0  0 
  4  7  1  0  0  0  0 
  8  4  1  0  0  0  0 
  8  5  1  0  0  0  0 
  6  9  1  0  0  0  0 
  6 10  1  0  0  0  0 
  8 11  1  0  0  0  0 
  9 12  1  0  0  0  0 
  9 13  2  0  0  0  0 
 10 14  2  0  0  0  0 
 11 15  1  0  0  0  0 
 13 14  1  0  0  0  0 
 13 16  1  0  0  0  0 
 16 17  1  0  0  0  0 
 16 18  2  0  0  0  0 
  1 19  1  0  0  0  0 
  2 20  1  0  0  0  0 
  3 21  1  0  0  0  0 
  4 22  1  0  0  0  0 
  7 23  1  0  0  0  0 
  8 24  1  0  0  0  0 
 10 25  1  0  0  0  0 
 11 26  1  0  0  0  0 
 11 27  1  0  0  0  0 
 12 28  1  0  0  0  0 
 12 29  1  0  0  0  0 
 15 30  1  0  0  0  0 
 17 31  1  0  0  0  0 
 17 32  1  0  0  0  0 
M  END
> <cdk:Title>
acadesine

> <Conformer>
7

> <SuperDrugID>
SD000015

$$$$
acadesine
  CDK     0628171801

 32 33  0  0  0  0  0  0  0  0999 V2000
    4.0353   -0.2577   -1.3462 O   0  0  0  0  0  0  0  0  0  0  0  0
    4.0138   -1.6835   -1.2533 C   0  0  1  0  0  0  0  0  0  0  0  0
    4.3920   -2.1582    0.1769 C   0  0  1  0  0  0  0  0  0  0  0  0
    2.5906   -2.2249   -1.4098 C   0  0  2  0  0  0  0  0  0  0  0  0
    3.1514   -2.2865    0.9020 O   0  0  0  0  0  0  0  0  0  0  0  0
    5.1793   -3.3756    0.1917 N   0  0  0  0  0  0  0  0  0  0  0  0
    1.8228   -1.5390   -2.3963 O   0  0  0  0  0  0  0  0  0  0  0  0
    2.0431   -2.0447    0.0198 C   0  0  2  0  0  0  0  0  0  0  0  0
    4.9382   -4.5583    0.8064 C   0  0  0  0  0  0  0  0  0  0  0  0
    6.3730   -3.5167   -0.4225 C   0  0  0  0  0  0  0  0  0  0  0  0
    0.8280   -2.9453    0.3569 C   0  0  2  0  0  0  0  0  0  0  0  0
    3.8988   -4.8753    1.6076 N   0  0  0  0  0  0  0  0  0  0  0  0
    5.9887   -5.4287    0.5008 C   0  0  0  0  0  0  0  0  0  0  0  0
    6.8660   -4.7506   -0.2530 N   0  0  0  0  0  0  0  0  0  0  0  0
    1.0654   -4.3194    0.0708 O   0  0  0  0  0  0  0  0  0  0  0  0
    6.1611   -6.7744    0.8881 C   0  0  0  0  0  0  0  0  0  0  0  0
    7.3111   -7.4283    0.6486 N   0  0  0  0  0  0  0  0  0  0  0  0
    5.2532   -7.4165    1.4613 O   0  0  0  0  0  0  0  0  0  0  0  0
    4.9714   -0.0082   -1.1958 H   0  0  0  0  0  0  0  0  0  0  0  0
    4.6683   -2.0853   -2.0302 H   0  0  0  0  0  0  0  0  0  0  0  0
    4.9828   -1.3838    0.6745 H   0  0  0  0  0  0  0  0  0  0  0  0
    2.6452   -3.2848   -1.6793 H   0  0  0  0  0  0  0  0  0  0  0  0
    0.9626   -2.0101   -2.4107 H   0  0  0  0  0  0  0  0  0  0  0  0
    1.7356   -1.0016    0.1609 H   0  0  0  0  0  0  0  0  0  0  0  0
    6.8538   -2.7889   -0.9572 H   0  0  0  0  0  0  0  0  0  0  0  0
   -0.0388   -2.6228   -0.2248 H   0  0  0  0  0  0  0  0  0  0  0  0
    0.5829   -2.8517    1.4172 H   0  0  0  0  0  0  0  0  0  0  0  0
    3.2084   -4.2269    1.8085 H   0  0  0  0  0  0  0  0  0  0  0  0
    3.8418   -5.7593    1.9998 H   0  0  0  0  0  0  0  0  0  0  0  0
    1.8410   -4.5630    0.6151 H   0  0  0  0  0  0  0  0  0  0  0  0
    7.4041   -8.3563    0.9160 H   0  0  0  0  0  0  0  0  0  0  0  0
    8.0527   -6.9766    0.2160 H   0  0  0  0  0  0  0  0  0  0  0  0
  2  1  1  0  0  0  0 
  2  3  1  0  0  0  0 
  4  2  1  0  0  0  0 
  3  5  1  0  0  0  0 
  3  6  1  0  0  0  0 
  4  7  1  0  0  0  0 
  8  4  1  0  0  0  0 
  8  5  1  0  0  0  0 
  6  9  1  0  0  0  0 
  6 10  1  0  0  0  0 
  8 11  1  0  0  0  0 
  9 12  1  0  0  0  0 
  9 13  2  0  0  0  0 
 10 14  2  0  0  0  0 
 11 15  1  0  0  0  0 
 13 14  1  0  0  0  0 
 13 16  1  0  0  0  0 
 16 17  1  0  0  0  0 
 16 18  2  0  0  0  0 
  1 19  1  0  0  0  0 
  2 20  1  0  0  0  0 
  3 21  1  0  0  0  0 
  4 22  1  0  0  0  0 
  7 23  1  0  0  0  0 
  8 24  1  0  0  0  0 
 10 25  1  0  0  0  0 
 11 26  1  0  0  0  0 
 11 27  1  0  0  0  0 
 12 28  1  0  0  0  0 
 12 29  1  0  0  0  0 
 15 30  1  0  0  0  0 
 17 31  1  0  0  0  0 
 17 32  1  0  0  0  0 
M  END
> <cdk:Title>
acadesine

> <Conformer>
8

> <SuperDrugID>
SD000015

$$$$
acadesine
  CDK     0628171801

 32 33  0  0  0  0  0  0  0  0999 V2000
    3.9697   -0.2259   -1.3943 O   0  0  0  0  0  0  0  0  0  0  0  0
    3.9765   -1.6506   -1.2718 C   0  0  1  0  0  0  0  0  0  0  0  0
    4.4207   -2.0856    0.1497 C   0  0  1  0  0  0  0  0  0  0  0  0
    2.5517   -2.2059   -1.3432 C   0  0  2  0  0  0  0  0  0  0  0  0
    3.2226   -2.1230    0.9484 O   0  0  0  0  0  0  0  0  0  0  0  0
    5.1554   -3.3328    0.1710 N   0  0  0  0  0  0  0  0  0  0  0  0
    1.7436   -1.5548   -2.3222 O   0  0  0  0  0  0  0  0  0  0  0  0
    2.0674   -1.9804    0.1035 C   0  0  2  0  0  0  0  0  0  0  0  0
    4.8619   -4.5067    0.7786 C   0  0  0  0  0  0  0  0  0  0  0  0
    6.3479   -3.5116   -0.4352 C   0  0  0  0  0  0  0  0  0  0  0  0
    0.9391   -2.9438    0.5436 C   0  0  2  0  0  0  0  0  0  0  0  0
    3.7991   -4.7872    1.5611 N   0  0  0  0  0  0  0  0  0  0  0  0
    5.8898   -5.4085    0.4890 C   0  0  0  0  0  0  0  0  0  0  0  0
    6.8012   -4.7587   -0.2504 N   0  0  0  0  0  0  0  0  0  0  0  0
    0.5712   -2.6853    1.8946 O   0  0  0  0  0  0  0  0  0  0  0  0
    6.0154   -6.7616    0.8663 C   0  0  0  0  0  0  0  0  0  0  0  0
    4.9650   -7.5228    1.2220 N   0  0  0  0  0  0  0  0  0  0  0  0
    7.1401   -7.3104    0.8491 O   0  0  0  0  0  0  0  0  0  0  0  0
    4.9023    0.0468   -1.2703 H   0  0  0  0  0  0  0  0  0  0  0  0
    4.5989   -2.0676   -2.0676 H   0  0  0  0  0  0  0  0  0  0  0  0
    5.0738   -1.3201    0.5803 H   0  0  0  0  0  0  0  0  0  0  0  0
    2.5925   -3.2748   -1.5775 H   0  0  0  0  0  0  0  0  0  0  0  0
    0.8883   -2.0371   -2.3048 H   0  0  0  0  0  0  0  0  0  0  0  0
    1.7047   -0.9517    0.2080 H   0  0  0  0  0  0  0  0  0  0  0  0
    6.8549   -2.8034   -0.9728 H   0  0  0  0  0  0  0  0  0  0  0  0
    1.2693   -3.9816    0.4584 H   0  0  0  0  0  0  0  0  0  0  0  0
    0.0569   -2.8065   -0.0851 H   0  0  0  0  0  0  0  0  0  0  0  0
    3.1089   -4.1268    1.7116 H   0  0  0  0  0  0  0  0  0  0  0  0
    3.7291   -5.6516    1.9938 H   0  0  0  0  0  0  0  0  0  0  0  0
   -0.1358   -3.3379    2.0863 H   0  0  0  0  0  0  0  0  0  0  0  0
    5.1023   -8.4485    1.4774 H   0  0  0  0  0  0  0  0  0  0  0  0
    4.0682   -7.1560    1.2169 H   0  0  0  0  0  0  0  0  0  0  0  0
  2  1  1  0  0  0  0 
  2  3  1  0  0  0  0 
  4  2  1  0  0  0  0 
  3  5  1  0  0  0  0 
  3  6  1  0  0  0  0 
  4  7  1  0  0  0  0 
  8  4  1  0  0  0  0 
  8  5  1  0  0  0  0 
  6  9  1  0  0  0  0 
  6 10  1  0  0  0  0 
  8 11  1  0  0  0  0 
  9 12  1  0  0  0  0 
  9 13  2  0  0  0  0 
 10 14  2  0  0  0  0 
 11 15  1  0  0  0  0 
 13 14  1  0  0  0  0 
 13 16  1  0  0  0  0 
 16 17  1  0  0  0  0 
 16 18  2  0  0  0  0 
  1 19  1  0  0  0  0 
  2 20  1  0  0  0  0 
  3 21  1  0  0  0  0 
  4 22  1  0  0  0  0 
  7 23  1  0  0  0  0 
  8 24  1  0  0  0  0 
 10 25  1  0  0  0  0 
 11 26  1  0  0  0  0 
 11 27  1  0  0  0  0 
 12 28  1  0  0  0  0 
 12 29  1  0  0  0  0 
 15 30  1  0  0  0  0 
 17 31  1  0  0  0  0 
 17 32  1  0  0  0  0 
M  END
> <cdk:Title>
acadesine

> <Conformer>
9

> <SuperDrugID>
SD000015

$$$$
acadesine
  CDK     0628171801

 32 33  0  0  0  0  0  0  0  0999 V2000
    3.8820   -0.3232   -1.3874 O   0  0  0  0  0  0  0  0  0  0  0  0
    3.9607   -1.7447   -1.2606 C   0  0  1  0  0  0  0  0  0  0  0  0
    4.4109   -2.1507    0.1673 C   0  0  1  0  0  0  0  0  0  0  0  0
    2.5679   -2.3739   -1.3538 C   0  0  2  0  0  0  0  0  0  0  0  0
    3.2075   -2.2240    0.9524 O   0  0  0  0  0  0  0  0  0  0  0  0
    5.1906   -3.3717    0.1959 N   0  0  0  0  0  0  0  0  0  0  0  0
    1.7374   -1.7416   -2.3268 O   0  0  0  0  0  0  0  0  0  0  0  0
    2.0574   -2.1924    0.0915 C   0  0  2  0  0  0  0  0  0  0  0  0
    4.9393   -4.5531    0.8065 C   0  0  0  0  0  0  0  0  0  0  0  0
    6.3919   -3.5155   -0.4036 C   0  0  0  0  0  0  0  0  0  0  0  0
    1.0306   -3.2595    0.5352 C   0  0  2  0  0  0  0  0  0  0  0  0
    3.9045   -4.8585    1.6181 N   0  0  0  0  0  0  0  0  0  0  0  0
    5.9820   -5.4306    0.4906 C   0  0  0  0  0  0  0  0  0  0  0  0
    6.8797   -4.7529   -0.2402 N   0  0  0  0  0  0  0  0  0  0  0  0
   -0.1601   -3.1864   -0.2389 O   0  0  0  0  0  0  0  0  0  0  0  0
    6.1324   -6.7893    0.8363 C   0  0  0  0  0  0  0  0  0  0  0  0
    5.0913   -7.5702    1.1860 N   0  0  0  0  0  0  0  0  0  0  0  0
    7.2664   -7.3182    0.7949 O   0  0  0  0  0  0  0  0  0  0  0  0
    4.8006   -0.0016   -1.2754 H   0  0  0  0  0  0  0  0  0  0  0  0
    4.6161   -2.1271   -2.0467 H   0  0  0  0  0  0  0  0  0  0  0  0
    5.0301   -1.3596    0.6014 H   0  0  0  0  0  0  0  0  0  0  0  0
    2.6647   -3.4346   -1.6088 H   0  0  0  0  0  0  0  0  0  0  0  0
    0.8945   -2.2408   -2.3097 H   0  0  0  0  0  0  0  0  0  0  0  0
    1.6047   -1.2005    0.2003 H   0  0  0  0  0  0  0  0  0  0  0  0
    6.8815   -2.7836   -0.9229 H   0  0  0  0  0  0  0  0  0  0  0  0
    0.7708   -3.1032    1.5845 H   0  0  0  0  0  0  0  0  0  0  0  0
    1.4535   -4.2599    0.4244 H   0  0  0  0  0  0  0  0  0  0  0  0
    3.2109   -4.2106    1.8031 H   0  0  0  0  0  0  0  0  0  0  0  0
    3.8585   -5.7300    2.0375 H   0  0  0  0  0  0  0  0  0  0  0  0
   -0.7235   -3.9091    0.1114 H   0  0  0  0  0  0  0  0  0  0  0  0
    5.2347   -8.5032    1.4117 H   0  0  0  0  0  0  0  0  0  0  0  0
    4.1909   -7.2101    1.1999 H   0  0  0  0  0  0  0  0  0  0  0  0
  2  1  1  0  0  0  0 
  2  3  1  0  0  0  0 
  4  2  1  0  0  0  0 
  3  5  1  0  0  0  0 
  3  6  1  0  0  0  0 
  4  7  1  0  0  0  0 
  8  4  1  0  0  0  0 
  8  5  1  0  0  0  0 
  6  9  1  0  0  0  0 
  6 10  1  0  0  0  0 
  8 11  1  0  0  0  0 
  9 12  1  0  0  0  0 
  9 13  2  0  0  0  0 
 10 14  2  0  0  0  0 
 11 15  1  0  0  0  0 
 13 14  1  0  0  0  0 
 13 16  1  0  0  0  0 
 16 17  1  0  0  0  0 
 16 18  2  0  0  0  0 
  1 19  1  0  0  0  0 
  2 20  1  0  0  0  0 
  3 21  1  0  0  0  0 
  4 22  1  0  0  0  0 
  7 23  1  0  0  0  0 
  8 24  1  0  0  0  0 
 10 25  1  0  0  0  0 
 11 26  1  0  0  0  0 
 11 27  1  0  0  0  0 
 12 28  1  0  0  0  0 
 12 29  1  0  0  0  0 
 15 30  1  0  0  0  0 
 17 31  1  0  0  0  0 
 17 32  1  0  0  0  0 
M  END
> <cdk:Title>
acadesine

> <Conformer>
10

> <SuperDrugID>
SD000015

$$$$
