aceglutamide
  CDK     0628171802

 25 24  0  0  0  0  0  0  0  0999 V2000
   -1.6361   -1.1434   -4.1934 C   0  0  0  0  0  0  0  0  0  0  0  0
   -1.1881   -1.6395   -2.8839 C   0  0  0  0  0  0  0  0  0  0  0  0
   -0.7887   -2.8235   -2.7938 O   0  0  0  0  0  0  0  0  0  0  0  0
   -1.2237   -0.7710   -1.8337 N   0  0  0  0  0  0  0  0  0  0  0  0
   -0.8259   -0.9488   -0.4639 C   0  0  1  0  0  0  0  0  0  0  0  0
   -0.4005   -2.3782    0.0030 C   0  0  2  0  0  0  0  0  0  0  0  0
   -0.2051   -2.5087    1.5395 C   0  0  2  0  0  0  0  0  0  0  0  0
    0.2016   -3.8715    1.9489 C   0  0  0  0  0  0  0  0  0  0  0  0
   -0.5737   -4.9405    1.6902 N   0  0  0  0  0  0  0  0  0  0  0  0
    1.2768   -4.0624    2.5600 O   0  0  0  0  0  0  0  0  0  0  0  0
    0.2272    0.0582   -0.2022 C   0  0  0  0  0  0  0  0  0  0  0  0
    0.0194    1.0582    0.6858 O   0  0  0  0  0  0  0  0  0  0  0  0
    1.3267    0.0196   -0.8020 O   0  0  0  0  0  0  0  0  0  0  0  0
   -0.9559   -0.3575   -4.5242 H   0  0  0  0  0  0  0  0  0  0  0  0
   -1.6418   -1.9434   -4.9361 H   0  0  0  0  0  0  0  0  0  0  0  0
   -2.6455   -0.7344   -4.1109 H   0  0  0  0  0  0  0  0  0  0  0  0
   -1.5658    0.1129   -2.0446 H   0  0  0  0  0  0  0  0  0  0  0  0
   -1.7104   -0.6760    0.1184 H   0  0  0  0  0  0  0  0  0  0  0  0
    0.5240   -2.6732   -0.5049 H   0  0  0  0  0  0  0  0  0  0  0  0
   -1.1882   -3.0785   -0.2907 H   0  0  0  0  0  0  0  0  0  0  0  0
   -1.1435   -2.2621    2.0455 H   0  0  0  0  0  0  0  0  0  0  0  0
    0.5561   -1.7939    1.8661 H   0  0  0  0  0  0  0  0  0  0  0  0
   -0.2901   -5.8279    1.9614 H   0  0  0  0  0  0  0  0  0  0  0  0
   -1.4167   -4.8275    1.2267 H   0  0  0  0  0  0  0  0  0  0  0  0
    0.7186    1.7292    0.8344 H   0  0  0  0  0  0  0  0  0  0  0  0
  1  2  1  0  0  0  0 
  2  3  2  0  0  0  0 
  2  4  1  0  0  0  0 
  5  4  1  0  0  0  0 
  5  6  1  0  0  0  0 
  6  7  1  0  0  0  0 
  7  8  1  0  0  0  0 
  8  9  1  0  0  0  0 
  8 10  2  0  0  0  0 
  5 11  1  0  0  0  0 
 11 12  1  0  0  0  0 
 11 13  2  0  0  0  0 
  1 14  1  0  0  0  0 
  1 15  1  0  0  0  0 
  1 16  1  0  0  0  0 
  4 17  1  0  0  0  0 
  5 18  1  0  0  0  0 
  6 19  1  0  0  0  0 
  6 20  1  0  0  0  0 
  7 21  1  0  0  0  0 
  7 22  1  0  0  0  0 
  9 23  1  0  0  0  0 
  9 24  1  0  0  0  0 
 12 25  1  0  0  0  0 
M  END
> <cdk:Title>
aceglutamide

> <Conformer>
1

> <SuperDrugID>
SD000023

$$$$
aceglutamide
  CDK     0628171802

 25 24  0  0  0  0  0  0  0  0999 V2000
   -1.6531   -1.0689   -4.1813 C   0  0  0  0  0  0  0  0  0  0  0  0
   -1.2318   -1.5517   -2.8561 C   0  0  0  0  0  0  0  0  0  0  0  0
   -0.8638   -2.7465   -2.7777 O   0  0  0  0  0  0  0  0  0  0  0  0
   -1.2502   -0.6946   -1.7919 N   0  0  0  0  0  0  0  0  0  0  0  0
   -0.8596   -0.8990   -0.4222 C   0  0  1  0  0  0  0  0  0  0  0  0
   -0.4483   -2.3392    0.0263 C   0  0  2  0  0  0  0  0  0  0  0  0
   -0.2106   -2.5058    1.5552 C   0  0  2  0  0  0  0  0  0  0  0  0
    0.2110   -3.8747    1.9282 C   0  0  0  0  0  0  0  0  0  0  0  0
   -0.5730   -4.9408    1.6870 N   0  0  0  0  0  0  0  0  0  0  0  0
    1.3097   -4.0730    2.4943 O   0  0  0  0  0  0  0  0  0  0  0  0
    0.1973    0.0986   -0.1393 C   0  0  0  0  0  0  0  0  0  0  0  0
   -0.0110    1.0888    0.7605 O   0  0  0  0  0  0  0  0  0  0  0  0
    1.3057    0.0457   -0.7221 O   0  0  0  0  0  0  0  0  0  0  0  0
   -2.5518   -1.6013   -4.4976 H   0  0  0  0  0  0  0  0  0  0  0  0
   -1.8672    0.0017   -4.1643 H   0  0  0  0  0  0  0  0  0  0  0  0
   -0.8581   -1.2505   -4.9076 H   0  0  0  0  0  0  0  0  0  0  0  0
   -1.5736    0.1975   -1.9947 H   0  0  0  0  0  0  0  0  0  0  0  0
   -1.7409   -0.6309    0.1690 H   0  0  0  0  0  0  0  0  0  0  0  0
    0.4553   -2.6404   -0.5085 H   0  0  0  0  0  0  0  0  0  0  0  0
   -1.2566   -3.0182   -0.2562 H   0  0  0  0  0  0  0  0  0  0  0  0
   -1.1326   -2.2717    2.0944 H   0  0  0  0  0  0  0  0  0  0  0  0
    0.5546   -1.7964    1.8826 H   0  0  0  0  0  0  0  0  0  0  0  0
   -0.2845   -5.8279    1.9552 H   0  0  0  0  0  0  0  0  0  0  0  0
   -1.4269   -4.8270    1.2410 H   0  0  0  0  0  0  0  0  0  0  0  0
    0.6932    1.7425    0.9537 H   0  0  0  0  0  0  0  0  0  0  0  0
  1  2  1  0  0  0  0 
  2  3  2  0  0  0  0 
  2  4  1  0  0  0  0 
  5  4  1  0  0  0  0 
  5  6  1  0  0  0  0 
  6  7  1  0  0  0  0 
  7  8  1  0  0  0  0 
  8  9  1  0  0  0  0 
  8 10  2  0  0  0  0 
  5 11  1  0  0  0  0 
 11 12  1  0  0  0  0 
 11 13  2  0  0  0  0 
  1 14  1  0  0  0  0 
  1 15  1  0  0  0  0 
  1 16  1  0  0  0  0 
  4 17  1  0  0  0  0 
  5 18  1  0  0  0  0 
  6 19  1  0  0  0  0 
  6 20  1  0  0  0  0 
  7 21  1  0  0  0  0 
  7 22  1  0  0  0  0 
  9 23  1  0  0  0  0 
  9 24  1  0  0  0  0 
 12 25  1  0  0  0  0 
M  END
> <cdk:Title>
aceglutamide

> <Conformer>
2

> <SuperDrugID>
SD000023

$$$$
aceglutamide
  CDK     0628171802

 25 24  0  0  0  0  0  0  0  0999 V2000
    5.7629   -2.6357   -1.1648 C   0  0  0  0  0  0  0  0  0  0  0  0
    4.4459   -2.8282   -0.5334 C   0  0  0  0  0  0  0  0  0  0  0  0
    3.6329   -3.6130   -1.0745 O   0  0  0  0  0  0  0  0  0  0  0  0
    4.1913   -2.1464    0.6196 N   0  0  0  0  0  0  0  0  0  0  0  0
    3.0479   -2.1719    1.4927 C   0  0  1  0  0  0  0  0  0  0  0  0
    1.7918   -2.9878    1.0464 C   0  0  2  0  0  0  0  0  0  0  0  0
    0.5565   -2.8114    1.9751 C   0  0  2  0  0  0  0  0  0  0  0  0
   -0.6249   -3.5480    1.4795 C   0  0  0  0  0  0  0  0  0  0  0  0
   -0.7150   -4.8834    1.6059 N   0  0  0  0  0  0  0  0  0  0  0  0
   -1.5713   -2.9372    0.9320 O   0  0  0  0  0  0  0  0  0  0  0  0
    3.5424   -2.6006    2.8190 C   0  0  0  0  0  0  0  0  0  0  0  0
    3.4850   -1.7653    3.8823 O   0  0  0  0  0  0  0  0  0  0  0  0
    4.0286   -3.7431    2.9876 O   0  0  0  0  0  0  0  0  0  0  0  0
    6.5440   -2.9993   -0.4951 H   0  0  0  0  0  0  0  0  0  0  0  0
    5.8395   -3.1779   -2.1099 H   0  0  0  0  0  0  0  0  0  0  0  0
    5.9309   -1.5760   -1.3618 H   0  0  0  0  0  0  0  0  0  0  0  0
    4.9019   -1.5493    0.9041 H   0  0  0  0  0  0  0  0  0  0  0  0
    2.7324   -1.1289    1.5711 H   0  0  0  0  0  0  0  0  0  0  0  0
    2.0498   -4.0502    0.9826 H   0  0  0  0  0  0  0  0  0  0  0  0
    1.5048   -2.6473    0.0473 H   0  0  0  0  0  0  0  0  0  0  0  0
    0.3169   -1.7470    2.0490 H   0  0  0  0  0  0  0  0  0  0  0  0
    0.7903   -3.1661    2.9801 H   0  0  0  0  0  0  0  0  0  0  0  0
   -1.4952   -5.3511    1.2668 H   0  0  0  0  0  0  0  0  0  0  0  0
   -0.0054   -5.3822    2.0394 H   0  0  0  0  0  0  0  0  0  0  0  0
    3.8282   -2.0549    4.7540 H   0  0  0  0  0  0  0  0  0  0  0  0
  1  2  1  0  0  0  0 
  2  3  2  0  0  0  0 
  2  4  1  0  0  0  0 
  5  4  1  0  0  0  0 
  5  6  1  0  0  0  0 
  6  7  1  0  0  0  0 
  7  8  1  0  0  0  0 
  8  9  1  0  0  0  0 
  8 10  2  0  0  0  0 
  5 11  1  0  0  0  0 
 11 12  1  0  0  0  0 
 11 13  2  0  0  0  0 
  1 14  1  0  0  0  0 
  1 15  1  0  0  0  0 
  1 16  1  0  0  0  0 
  4 17  1  0  0  0  0 
  5 18  1  0  0  0  0 
  6 19  1  0  0  0  0 
  6 20  1  0  0  0  0 
  7 21  1  0  0  0  0 
  7 22  1  0  0  0  0 
  9 23  1  0  0  0  0 
  9 24  1  0  0  0  0 
 12 25  1  0  0  0  0 
M  END
> <cdk:Title>
aceglutamide

> <Conformer>
3

> <SuperDrugID>
SD000023

$$$$
aceglutamide
  CDK     0628171802

 25 24  0  0  0  0  0  0  0  0999 V2000
   -4.1847    0.6792    4.9012 C   0  0  0  0  0  0  0  0  0  0  0  0
   -3.2874   -0.2315    4.1675 C   0  0  0  0  0  0  0  0  0  0  0  0
   -3.1494   -1.3863    4.6319 O   0  0  0  0  0  0  0  0  0  0  0  0
   -2.6514    0.2086    3.0414 N   0  0  0  0  0  0  0  0  0  0  0  0
   -1.7461   -0.4685    2.1474 C   0  0  1  0  0  0  0  0  0  0  0  0
   -1.3180   -1.9352    2.4828 C   0  0  2  0  0  0  0  0  0  0  0  0
   -0.2116   -2.5098    1.5504 C   0  0  2  0  0  0  0  0  0  0  0  0
    0.2100   -3.8742    1.9339 C   0  0  0  0  0  0  0  0  0  0  0  0
   -0.5733   -4.9397    1.6886 N   0  0  0  0  0  0  0  0  0  0  0  0
    1.3123   -4.0680    2.4949 O   0  0  0  0  0  0  0  0  0  0  0  0
   -2.3353   -0.3633    0.7938 C   0  0  0  0  0  0  0  0  0  0  0  0
   -1.7139    0.3406   -0.1820 O   0  0  0  0  0  0  0  0  0  0  0  0
   -3.4206   -0.9234    0.5185 O   0  0  0  0  0  0  0  0  0  0  0  0
   -3.7782    0.8681    5.8951 H   0  0  0  0  0  0  0  0  0  0  0  0
   -4.2936    1.6346    4.3844 H   0  0  0  0  0  0  0  0  0  0  0  0
   -5.1730    0.2261    5.0075 H   0  0  0  0  0  0  0  0  0  0  0  0
   -2.8381    1.1294    2.8012 H   0  0  0  0  0  0  0  0  0  0  0  0
   -0.8352    0.1366    2.1613 H   0  0  0  0  0  0  0  0  0  0  0  0
   -2.1960   -2.5863    2.4472 H   0  0  0  0  0  0  0  0  0  0  0  0
   -0.9236   -1.9485    3.5020 H   0  0  0  0  0  0  0  0  0  0  0  0
    0.6566   -1.8447    1.5878 H   0  0  0  0  0  0  0  0  0  0  0  0
   -0.5660   -2.5354    0.5170 H   0  0  0  0  0  0  0  0  0  0  0  0
   -0.2859   -5.8262    1.9563 H   0  0  0  0  0  0  0  0  0  0  0  0
   -1.4232   -4.8263    1.2374 H   0  0  0  0  0  0  0  0  0  0  0  0
   -2.1173    0.4161   -1.0737 H   0  0  0  0  0  0  0  0  0  0  0  0
  1  2  1  0  0  0  0 
  2  3  2  0  0  0  0 
  2  4  1  0  0  0  0 
  5  4  1  0  0  0  0 
  5  6  1  0  0  0  0 
  6  7  1  0  0  0  0 
  7  8  1  0  0  0  0 
  8  9  1  0  0  0  0 
  8 10  2  0  0  0  0 
  5 11  1  0  0  0  0 
 11 12  1  0  0  0  0 
 11 13  2  0  0  0  0 
  1 14  1  0  0  0  0 
  1 15  1  0  0  0  0 
  1 16  1  0  0  0  0 
  4 17  1  0  0  0  0 
  5 18  1  0  0  0  0 
  6 19  1  0  0  0  0 
  6 20  1  0  0  0  0 
  7 21  1  0  0  0  0 
  7 22  1  0  0  0  0 
  9 23  1  0  0  0  0 
  9 24  1  0  0  0  0 
 12 25  1  0  0  0  0 
M  END
> <cdk:Title>
aceglutamide

> <Conformer>
4

> <SuperDrugID>
SD000023

$$$$
aceglutamide
  CDK     0628171802

 25 24  0  0  0  0  0  0  0  0999 V2000
   -4.8346   -0.8949    5.1456 C   0  0  0  0  0  0  0  0  0  0  0  0
   -3.8262   -1.2491    4.1342 C   0  0  0  0  0  0  0  0  0  0  0  0
   -4.2133   -1.4257    2.9556 O   0  0  0  0  0  0  0  0  0  0  0  0
   -2.5257   -1.3744    4.5325 N   0  0  0  0  0  0  0  0  0  0  0  0
   -1.3440   -1.7211    3.7870 C   0  0  1  0  0  0  0  0  0  0  0  0
   -1.4926   -2.0079    2.2554 C   0  0  2  0  0  0  0  0  0  0  0  0
   -0.2112   -2.5163    1.5352 C   0  0  1  0  0  0  0  0  0  0  0  0
    0.2047   -3.8710    1.9536 C   0  0  0  0  0  0  0  0  0  0  0  0
   -0.5722   -4.9392    1.6901 N   0  0  0  0  0  0  0  0  0  0  0  0
    1.2897   -4.0534    2.5529 O   0  0  0  0  0  0  0  0  0  0  0  0
   -0.3582   -0.6494    4.0530 C   0  0  0  0  0  0  0  0  0  0  0  0
    0.7916   -0.9148    4.7172 O   0  0  0  0  0  0  0  0  0  0  0  0
   -0.5688    0.5267    3.6781 O   0  0  0  0  0  0  0  0  0  0  0  0
   -4.6177    0.0925    5.5587 H   0  0  0  0  0  0  0  0  0  0  0  0
   -5.8381   -0.8783    4.7147 H   0  0  0  0  0  0  0  0  0  0  0  0
   -4.8189   -1.6339    5.9482 H   0  0  0  0  0  0  0  0  0  0  0  0
   -2.3712   -1.2007    5.4756 H   0  0  0  0  0  0  0  0  0  0  0  0
   -0.9771   -2.6420    4.2496 H   0  0  0  0  0  0  0  0  0  0  0  0
   -1.8202   -1.0960    1.7526 H   0  0  0  0  0  0  0  0  0  0  0  0
   -2.2709   -2.7604    2.1079 H   0  0  0  0  0  0  0  0  0  0  0  0
   -0.4031   -2.5427    0.4585 H   0  0  0  0  0  0  0  0  0  0  0  0
    0.6065   -1.8107    1.6991 H   0  0  0  0  0  0  0  0  0  0  0  0
   -0.2882   -5.8249    1.9634 H   0  0  0  0  0  0  0  0  0  0  0  0
   -1.4170   -4.8249    1.2244 H   0  0  0  0  0  0  0  0  0  0  0  0
    1.4331   -0.1945    4.9003 H   0  0  0  0  0  0  0  0  0  0  0  0
  1  2  1  0  0  0  0 
  2  3  2  0  0  0  0 
  2  4  1  0  0  0  0 
  5  4  1  0  0  0  0 
  5  6  1  0  0  0  0 
  6  7  1  0  0  0  0 
  7  8  1  0  0  0  0 
  8  9  1  0  0  0  0 
  8 10  2  0  0  0  0 
  5 11  1  0  0  0  0 
 11 12  1  0  0  0  0 
 11 13  2  0  0  0  0 
  1 14  1  0  0  0  0 
  1 15  1  0  0  0  0 
  1 16  1  0  0  0  0 
  4 17  1  0  0  0  0 
  5 18  1  0  0  0  0 
  6 19  1  0  0  0  0 
  6 20  1  0  0  0  0 
  7 21  1  0  0  0  0 
  7 22  1  0  0  0  0 
  9 23  1  0  0  0  0 
  9 24  1  0  0  0  0 
 12 25  1  0  0  0  0 
M  END
> <cdk:Title>
aceglutamide

> <Conformer>
5

> <SuperDrugID>
SD000023

$$$$
aceglutamide
  CDK     0628171802

 25 24  0  0  0  0  0  0  0  0999 V2000
   -4.9396   -0.5744    4.8443 C   0  0  0  0  0  0  0  0  0  0  0  0
   -3.9036   -1.0887    3.9327 C   0  0  0  0  0  0  0  0  0  0  0  0
   -4.2831   -1.4386    2.7915 O   0  0  0  0  0  0  0  0  0  0  0  0
   -2.6086   -1.1714    4.3646 N   0  0  0  0  0  0  0  0  0  0  0  0
   -1.4164   -1.6176    3.6922 C   0  0  1  0  0  0  0  0  0  0  0  0
   -1.5162   -1.9923    2.1787 C   0  0  2  0  0  0  0  0  0  0  0  0
   -0.2054   -2.5170    1.5236 C   0  0  1  0  0  0  0  0  0  0  0  0
    0.1950   -3.8690    1.9686 C   0  0  0  0  0  0  0  0  0  0  0  0
   -0.5729   -4.9393    1.6923 N   0  0  0  0  0  0  0  0  0  0  0  0
    1.2710   -4.0511    2.5823 O   0  0  0  0  0  0  0  0  0  0  0  0
   -0.4081   -0.5586    3.9268 C   0  0  0  0  0  0  0  0  0  0  0  0
    0.7155   -0.8209    4.6358 O   0  0  0  0  0  0  0  0  0  0  0  0
   -0.5684    0.5993    3.4758 O   0  0  0  0  0  0  0  0  0  0  0  0
   -5.6719   -1.3595    5.0338 H   0  0  0  0  0  0  0  0  0  0  0  0
   -4.5139   -0.2557    5.7975 H   0  0  0  0  0  0  0  0  0  0  0  0
   -5.4442    0.2791    4.3901 H   0  0  0  0  0  0  0  0  0  0  0  0
   -2.4635   -0.8736    5.2768 H   0  0  0  0  0  0  0  0  0  0  0  0
   -1.0983   -2.5167    4.2265 H   0  0  0  0  0  0  0  0  0  0  0  0
   -1.8470   -1.1109    1.6203 H   0  0  0  0  0  0  0  0  0  0  0  0
   -2.2778   -2.7649    2.0556 H   0  0  0  0  0  0  0  0  0  0  0  0
   -0.3478   -2.5582    0.4409 H   0  0  0  0  0  0  0  0  0  0  0  0
    0.6031   -1.8052    1.7068 H   0  0  0  0  0  0  0  0  0  0  0  0
   -0.2918   -5.8268    1.9688 H   0  0  0  0  0  0  0  0  0  0  0  0
   -1.4090   -4.8241    1.2133 H   0  0  0  0  0  0  0  0  0  0  0  0
    1.3753   -0.1107    4.7902 H   0  0  0  0  0  0  0  0  0  0  0  0
  1  2  1  0  0  0  0 
  2  3  2  0  0  0  0 
  2  4  1  0  0  0  0 
  5  4  1  0  0  0  0 
  5  6  1  0  0  0  0 
  6  7  1  0  0  0  0 
  7  8  1  0  0  0  0 
  8  9  1  0  0  0  0 
  8 10  2  0  0  0  0 
  5 11  1  0  0  0  0 
 11 12  1  0  0  0  0 
 11 13  2  0  0  0  0 
  1 14  1  0  0  0  0 
  1 15  1  0  0  0  0 
  1 16  1  0  0  0  0 
  4 17  1  0  0  0  0 
  5 18  1  0  0  0  0 
  6 19  1  0  0  0  0 
  6 20  1  0  0  0  0 
  7 21  1  0  0  0  0 
  7 22  1  0  0  0  0 
  9 23  1  0  0  0  0 
  9 24  1  0  0  0  0 
 12 25  1  0  0  0  0 
M  END
> <cdk:Title>
aceglutamide

> <Conformer>
6

> <SuperDrugID>
SD000023

$$$$
aceglutamide
  CDK     0628171802

 25 24  0  0  0  0  0  0  0  0999 V2000
    2.6401    1.2967   -0.2995 C   0  0  0  0  0  0  0  0  0  0  0  0
    2.3366    1.5579    1.1220 C   0  0  0  0  0  0  0  0  0  0  0  0
    3.0738    2.3446    1.7596 O   0  0  0  0  0  0  0  0  0  0  0  0
    1.3091    1.0014    1.8259 N   0  0  0  0  0  0  0  0  0  0  0  0
    0.3418    0.0395    1.3712 C   0  0  1  0  0  0  0  0  0  0  0  0
    0.7214   -1.3568    1.9527 C   0  0  2  0  0  0  0  0  0  0  0  0
   -0.2211   -2.5217    1.5312 C   0  0  2  0  0  0  0  0  0  0  0  0
    0.2105   -3.8740    1.9566 C   0  0  0  0  0  0  0  0  0  0  0  0
   -0.5693   -4.9369    1.6911 N   0  0  0  0  0  0  0  0  0  0  0  0
    1.2852   -4.0808    2.5653 O   0  0  0  0  0  0  0  0  0  0  0  0
   -1.0068    0.4939    1.7865 C   0  0  0  0  0  0  0  0  0  0  0  0
   -1.9788    0.7012    0.8646 O   0  0  0  0  0  0  0  0  0  0  0  0
   -1.2852    0.6868    2.9927 O   0  0  0  0  0  0  0  0  0  0  0  0
    3.5486    1.8188   -0.6071 H   0  0  0  0  0  0  0  0  0  0  0  0
    2.7883    0.2282   -0.4632 H   0  0  0  0  0  0  0  0  0  0  0  0
    1.8170    1.6492   -0.9223 H   0  0  0  0  0  0  0  0  0  0  0  0
    1.2363    1.2809    2.7538 H   0  0  0  0  0  0  0  0  0  0  0  0
    0.3523   -0.0370    0.2800 H   0  0  0  0  0  0  0  0  0  0  0  0
    0.7484   -1.3028    3.0454 H   0  0  0  0  0  0  0  0  0  0  0  0
    1.7343   -1.5926    1.6130 H   0  0  0  0  0  0  0  0  0  0  0  0
   -0.3176   -2.5242    0.4429 H   0  0  0  0  0  0  0  0  0  0  0  0
   -1.2108   -2.3415    1.9573 H   0  0  0  0  0  0  0  0  0  0  0  0
   -0.2923   -5.8256    1.9612 H   0  0  0  0  0  0  0  0  0  0  0  0
   -1.4117   -4.8181    1.2265 H   0  0  0  0  0  0  0  0  0  0  0  0
   -2.8725    0.9955    1.1466 H   0  0  0  0  0  0  0  0  0  0  0  0
  1  2  1  0  0  0  0 
  2  3  2  0  0  0  0 
  2  4  1  0  0  0  0 
  5  4  1  0  0  0  0 
  5  6  1  0  0  0  0 
  6  7  1  0  0  0  0 
  7  8  1  0  0  0  0 
  8  9  1  0  0  0  0 
  8 10  2  0  0  0  0 
  5 11  1  0  0  0  0 
 11 12  1  0  0  0  0 
 11 13  2  0  0  0  0 
  1 14  1  0  0  0  0 
  1 15  1  0  0  0  0 
  1 16  1  0  0  0  0 
  4 17  1  0  0  0  0 
  5 18  1  0  0  0  0 
  6 19  1  0  0  0  0 
  6 20  1  0  0  0  0 
  7 21  1  0  0  0  0 
  7 22  1  0  0  0  0 
  9 23  1  0  0  0  0 
  9 24  1  0  0  0  0 
 12 25  1  0  0  0  0 
M  END
> <cdk:Title>
aceglutamide

> <Conformer>
7

> <SuperDrugID>
SD000023

$$$$
aceglutamide
  CDK     0628171802

 25 24  0  0  0  0  0  0  0  0999 V2000
    3.4377   -5.1970   -1.3676 C   0  0  0  0  0  0  0  0  0  0  0  0
    3.8446   -3.7790   -1.3891 C   0  0  0  0  0  0  0  0  0  0  0  0
    4.9730   -3.4796   -1.8405 O   0  0  0  0  0  0  0  0  0  0  0  0
    3.0810   -2.7395   -0.9548 N   0  0  0  0  0  0  0  0  0  0  0  0
    1.7715   -2.7892   -0.3704 C   0  0  1  0  0  0  0  0  0  0  0  0
    1.8643   -3.0136    1.1724 C   0  0  2  0  0  0  0  0  0  0  0  0
    0.5520   -2.8115    1.9850 C   0  0  1  0  0  0  0  0  0  0  0  0
   -0.6183   -3.5500    1.4674 C   0  0  0  0  0  0  0  0  0  0  0  0
   -0.7135   -4.8842    1.6010 N   0  0  0  0  0  0  0  0  0  0  0  0
   -1.5542   -2.9404    0.9003 O   0  0  0  0  0  0  0  0  0  0  0  0
    1.1065   -1.5155   -0.7245 C   0  0  0  0  0  0  0  0  0  0  0  0
   -0.0004   -1.5046   -1.5045 O   0  0  0  0  0  0  0  0  0  0  0  0
    1.5502   -0.4194   -0.3128 O   0  0  0  0  0  0  0  0  0  0  0  0
    4.2512   -5.8445   -1.7040 H   0  0  0  0  0  0  0  0  0  0  0  0
    3.1647   -5.4949   -0.3558 H   0  0  0  0  0  0  0  0  0  0  0  0
    2.5806   -5.3366   -2.0271 H   0  0  0  0  0  0  0  0  0  0  0  0
    3.4809   -1.8582   -1.0371 H   0  0  0  0  0  0  0  0  0  0  0  0
    1.1944   -3.6080   -0.8101 H   0  0  0  0  0  0  0  0  0  0  0  0
    2.6129   -2.3271    1.5809 H   0  0  0  0  0  0  0  0  0  0  0  0
    2.2316   -4.0259    1.3580 H   0  0  0  0  0  0  0  0  0  0  0  0
    0.7255   -3.1270    3.0172 H   0  0  0  0  0  0  0  0  0  0  0  0
    0.3250   -1.7425    2.0165 H   0  0  0  0  0  0  0  0  0  0  0  0
   -1.4941   -5.3521    1.2628 H   0  0  0  0  0  0  0  0  0  0  0  0
   -0.0100   -5.3784    2.0504 H   0  0  0  0  0  0  0  0  0  0  0  0
   -0.4414   -0.6574   -1.7313 H   0  0  0  0  0  0  0  0  0  0  0  0
  1  2  1  0  0  0  0 
  2  3  2  0  0  0  0 
  2  4  1  0  0  0  0 
  5  4  1  0  0  0  0 
  5  6  1  0  0  0  0 
  6  7  1  0  0  0  0 
  7  8  1  0  0  0  0 
  8  9  1  0  0  0  0 
  8 10  2  0  0  0  0 
  5 11  1  0  0  0  0 
 11 12  1  0  0  0  0 
 11 13  2  0  0  0  0 
  1 14  1  0  0  0  0 
  1 15  1  0  0  0  0 
  1 16  1  0  0  0  0 
  4 17  1  0  0  0  0 
  5 18  1  0  0  0  0 
  6 19  1  0  0  0  0 
  6 20  1  0  0  0  0 
  7 21  1  0  0  0  0 
  7 22  1  0  0  0  0 
  9 23  1  0  0  0  0 
  9 24  1  0  0  0  0 
 12 25  1  0  0  0  0 
M  END
> <cdk:Title>
aceglutamide

> <Conformer>
8

> <SuperDrugID>
SD000023

$$$$
aceglutamide
  CDK     0628171802

 25 24  0  0  0  0  0  0  0  0999 V2000
    2.3780   -4.2116    6.4860 C   0  0  0  0  0  0  0  0  0  0  0  0
    2.0834   -2.7650    6.5492 C   0  0  0  0  0  0  0  0  0  0  0  0
    1.9606   -2.2264    7.6730 O   0  0  0  0  0  0  0  0  0  0  0  0
    1.9121   -1.9439    5.4736 N   0  0  0  0  0  0  0  0  0  0  0  0
    2.0155   -2.2813    4.0811 C   0  0  1  0  0  0  0  0  0  0  0  0
    0.6005   -2.5980    3.5036 C   0  0  2  0  0  0  0  0  0  0  0  0
    0.5673   -2.8212    1.9621 C   0  0  2  0  0  0  0  0  0  0  0  0
   -0.6377   -3.5410    1.4975 C   0  0  0  0  0  0  0  0  0  0  0  0
   -0.7204   -4.8806    1.6127 N   0  0  0  0  0  0  0  0  0  0  0  0
   -1.5927   -2.9274    0.9674 O   0  0  0  0  0  0  0  0  0  0  0  0
    2.6965   -1.1616    3.3905 C   0  0  0  0  0  0  0  0  0  0  0  0
    3.9010   -1.3490    2.7981 O   0  0  0  0  0  0  0  0  0  0  0  0
    2.1755   -0.0245    3.3346 O   0  0  0  0  0  0  0  0  0  0  0  0
    2.4674   -4.6396    7.4887 H   0  0  0  0  0  0  0  0  0  0  0  0
    1.5723   -4.7284    5.9638 H   0  0  0  0  0  0  0  0  0  0  0  0
    3.3184   -4.3805    5.9594 H   0  0  0  0  0  0  0  0  0  0  0  0
    1.6818   -1.0213    5.6732 H   0  0  0  0  0  0  0  0  0  0  0  0
    2.6364   -3.1703    3.9471 H   0  0  0  0  0  0  0  0  0  0  0  0
   -0.0851   -1.7817    3.7536 H   0  0  0  0  0  0  0  0  0  0  0  0
    0.2351   -3.4981    4.0110 H   0  0  0  0  0  0  0  0  0  0  0  0
    1.4456   -3.3907    1.6473 H   0  0  0  0  0  0  0  0  0  0  0  0
    0.6171   -1.8490    1.4641 H   0  0  0  0  0  0  0  0  0  0  0  0
   -1.4976   -5.3526    1.2729 H   0  0  0  0  0  0  0  0  0  0  0  0
    0.0044   -5.3809    2.0215 H   0  0  0  0  0  0  0  0  0  0  0  0
    4.3524   -0.6065    2.3456 H   0  0  0  0  0  0  0  0  0  0  0  0
  1  2  1  0  0  0  0 
  2  3  2  0  0  0  0 
  2  4  1  0  0  0  0 
  5  4  1  0  0  0  0 
  5  6  1  0  0  0  0 
  6  7  1  0  0  0  0 
  7  8  1  0  0  0  0 
  8  9  1  0  0  0  0 
  8 10  2  0  0  0  0 
  5 11  1  0  0  0  0 
 11 12  1  0  0  0  0 
 11 13  2  0  0  0  0 
  1 14  1  0  0  0  0 
  1 15  1  0  0  0  0 
  1 16  1  0  0  0  0 
  4 17  1  0  0  0  0 
  5 18  1  0  0  0  0 
  6 19  1  0  0  0  0 
  6 20  1  0  0  0  0 
  7 21  1  0  0  0  0 
  7 22  1  0  0  0  0 
  9 23  1  0  0  0  0 
  9 24  1  0  0  0  0 
 12 25  1  0  0  0  0 
M  END
> <cdk:Title>
aceglutamide

> <Conformer>
9

> <SuperDrugID>
SD000023

$$$$
aceglutamide
  CDK     0628171802

 25 24  0  0  0  0  0  0  0  0999 V2000
    0.6582    3.0988    3.3811 C   0  0  0  0  0  0  0  0  0  0  0  0
    0.4758    1.6980    2.9655 C   0  0  0  0  0  0  0  0  0  0  0  0
   -0.6167    1.3913    2.4369 O   0  0  0  0  0  0  0  0  0  0  0  0
    1.4919    0.8116    3.1553 N   0  0  0  0  0  0  0  0  0  0  0  0
    1.6040   -0.5694    2.7773 C   0  0  1  0  0  0  0  0  0  0  0  0
    0.3877   -1.2834    2.1047 C   0  0  2  0  0  0  0  0  0  0  0  0
    0.5584   -2.8249    1.9822 C   0  0  2  0  0  0  0  0  0  0  0  0
   -0.6296   -3.5457    1.4710 C   0  0  0  0  0  0  0  0  0  0  0  0
   -0.7154   -4.8803    1.6041 N   0  0  0  0  0  0  0  0  0  0  0  0
   -1.5789   -2.9563    0.9060 O   0  0  0  0  0  0  0  0  0  0  0  0
    2.8183   -0.6431    1.9363 C   0  0  0  0  0  0  0  0  0  0  0  0
    3.8861   -1.3710    2.3389 O   0  0  0  0  0  0  0  0  0  0  0  0
    2.8930   -0.0295    0.8464 O   0  0  0  0  0  0  0  0  0  0  0  0
   -0.0108    3.3220    4.2138 H   0  0  0  0  0  0  0  0  0  0  0  0
    1.6862    3.2982    3.6949 H   0  0  0  0  0  0  0  0  0  0  0  0
    0.4212    3.7602    2.5447 H   0  0  0  0  0  0  0  0  0  0  0  0
    2.2749    1.1742    3.6013 H   0  0  0  0  0  0  0  0  0  0  0  0
    1.7989   -1.0996    3.7120 H   0  0  0  0  0  0  0  0  0  0  0  0
    0.2134   -0.8564    1.1121 H   0  0  0  0  0  0  0  0  0  0  0  0
   -0.4999   -1.1099    2.7213 H   0  0  0  0  0  0  0  0  0  0  0  0
    0.7823   -3.2184    2.9769 H   0  0  0  0  0  0  0  0  0  0  0  0
    1.4048   -3.0534    1.3306 H   0  0  0  0  0  0  0  0  0  0  0  0
   -1.4921   -5.3517    1.2666 H   0  0  0  0  0  0  0  0  0  0  0  0
   -0.0053   -5.3736    2.0426 H   0  0  0  0  0  0  0  0  0  0  0  0
    4.6959   -1.4032    1.7882 H   0  0  0  0  0  0  0  0  0  0  0  0
  1  2  1  0  0  0  0 
  2  3  2  0  0  0  0 
  2  4  1  0  0  0  0 
  5  4  1  0  0  0  0 
  5  6  1  0  0  0  0 
  6  7  1  0  0  0  0 
  7  8  1  0  0  0  0 
  8  9  1  0  0  0  0 
  8 10  2  0  0  0  0 
  5 11  1  0  0  0  0 
 11 12  1  0  0  0  0 
 11 13  2  0  0  0  0 
  1 14  1  0  0  0  0 
  1 15  1  0  0  0  0 
  1 16  1  0  0  0  0 
  4 17  1  0  0  0  0 
  5 18  1  0  0  0  0 
  6 19  1  0  0  0  0 
  6 20  1  0  0  0  0 
  7 21  1  0  0  0  0 
  7 22  1  0  0  0  0 
  9 23  1  0  0  0  0 
  9 24  1  0  0  0  0 
 12 25  1  0  0  0  0 
M  END
> <cdk:Title>
aceglutamide

> <Conformer>
10

> <SuperDrugID>
SD000023

$$$$
