methoxsalen
  CDK     0628171801

 24 26  0  0  0  0  0  0  0  0999 V2000
    0.3278   -0.0447   -0.7002 O   0  0  0  0  0  0  0  0  0  0  0  0
   -0.6424   -1.0086   -1.1519 C   0  0  0  0  0  0  0  0  0  0  0  0
    0.6660   -0.2298    0.6111 C   0  0  0  0  0  0  0  0  0  0  0  0
    1.7398   -1.0724    0.9821 C   0  0  0  0  0  0  0  0  0  0  0  0
   -0.0612    0.4102    1.6315 C   0  0  0  0  0  0  0  0  0  0  0  0
    2.0524   -1.2948    2.3554 C   0  0  0  0  0  0  0  0  0  0  0  0
    2.4775   -1.7038    0.0201 O   0  0  0  0  0  0  0  0  0  0  0  0
    0.2435    0.1931    2.9738 C   0  0  0  0  0  0  0  0  0  0  0  0
   -1.1134    1.2582    1.5304 O   0  0  0  0  0  0  0  0  0  0  0  0
    1.2913   -0.6569    3.3645 C   0  0  0  0  0  0  0  0  0  0  0  0
    3.1172   -2.1693    2.6623 C   0  0  0  0  0  0  0  0  0  0  0  0
    3.5084   -2.5526    0.3041 C   0  0  0  0  0  0  0  0  0  0  0  0
   -0.6640    0.9335    3.7169 C   0  0  0  0  0  0  0  0  0  0  0  0
   -1.4864    1.5771    2.7967 C   0  0  0  0  0  0  0  0  0  0  0  0
    3.8513   -2.8017    1.6436 C   0  0  0  0  0  0  0  0  0  0  0  0
    4.1296   -3.1040   -0.6312 O   0  0  0  0  0  0  0  0  0  0  0  0
   -0.8669   -0.8110   -2.2007 H   0  0  0  0  0  0  0  0  0  0  0  0
   -0.2570   -2.0290   -1.0736 H   0  0  0  0  0  0  0  0  0  0  0  0
   -1.5735   -0.9286   -0.5847 H   0  0  0  0  0  0  0  0  0  0  0  0
    1.4863   -0.8104    4.3562 H   0  0  0  0  0  0  0  0  0  0  0  0
    3.3660   -2.3583    3.6363 H   0  0  0  0  0  0  0  0  0  0  0  0
   -0.7248    0.9916    4.7357 H   0  0  0  0  0  0  0  0  0  0  0  0
   -2.2632    2.1944    3.0368 H   0  0  0  0  0  0  0  0  0  0  0  0
    4.6198   -3.4344    1.8767 H   0  0  0  0  0  0  0  0  0  0  0  0
  1  2  1  0  0  0  0 
  1  3  1  0  0  0  0 
  3  4  2  0  0  0  0 
  3  5  1  0  0  0  0 
  4  6  1  0  0  0  0 
  4  7  1  0  0  0  0 
  5  8  2  0  0  0  0 
  5  9  1  0  0  0  0 
  6 10  2  0  0  0  0 
  6 11  1  0  0  0  0 
  7 12  1  0  0  0  0 
  8 10  1  0  0  0  0 
  8 13  1  0  0  0  0 
  9 14  1  0  0  0  0 
 11 15  2  0  0  0  0 
 12 15  1  0  0  0  0 
 12 16  2  0  0  0  0 
 13 14  2  0  0  0  0 
  2 17  1  0  0  0  0 
  2 18  1  0  0  0  0 
  2 19  1  0  0  0  0 
 10 20  1  0  0  0  0 
 11 21  1  0  0  0  0 
 13 22  1  0  0  0  0 
 14 23  1  0  0  0  0 
 15 24  1  0  0  0  0 
M  END
> <cdk:Title>
methoxsalen

> <Conformer>
1

> <SuperDrugID>
SD000011

$$$$
methoxsalen
  CDK     0628171801

 24 26  0  0  0  0  0  0  0  0999 V2000
   -0.2788   -0.9951   -0.2157 O   0  0  0  0  0  0  0  0  0  0  0  0
   -0.2135   -0.3361   -1.4955 C   0  0  0  0  0  0  0  0  0  0  0  0
    0.5486   -0.4142    0.7059 C   0  0  0  0  0  0  0  0  0  0  0  0
    1.8879   -0.8405    0.8640 C   0  0  0  0  0  0  0  0  0  0  0  0
    0.0858    0.6405    1.5139 C   0  0  0  0  0  0  0  0  0  0  0  0
    2.7553   -0.1946    1.7919 C   0  0  0  0  0  0  0  0  0  0  0  0
    2.3727   -1.8684    0.1041 O   0  0  0  0  0  0  0  0  0  0  0  0
    0.9341    1.2729    2.4217 C   0  0  0  0  0  0  0  0  0  0  0  0
   -1.1406    1.2161    1.5531 O   0  0  0  0  0  0  0  0  0  0  0  0
    2.2730    0.8785    2.5783 C   0  0  0  0  0  0  0  0  0  0  0  0
    4.0893   -0.6466    1.8830 C   0  0  0  0  0  0  0  0  0  0  0  0
    3.6602   -2.3137    0.1802 C   0  0  0  0  0  0  0  0  0  0  0  0
    0.1936    2.2752    3.0303 C   0  0  0  0  0  0  0  0  0  0  0  0
   -1.0797    2.2138    2.4712 C   0  0  0  0  0  0  0  0  0  0  0  0
    4.5499   -1.7066    1.0817 C   0  0  0  0  0  0  0  0  0  0  0  0
    4.0364   -3.2525   -0.5570 O   0  0  0  0  0  0  0  0  0  0  0  0
   -0.8896   -0.8449   -2.1842 H   0  0  0  0  0  0  0  0  0  0  0  0
   -0.5287    0.7083   -1.4198 H   0  0  0  0  0  0  0  0  0  0  0  0
    0.7955   -0.3798   -1.9153 H   0  0  0  0  0  0  0  0  0  0  0  0
    2.8780    1.3681    3.2409 H   0  0  0  0  0  0  0  0  0  0  0  0
    4.7432   -0.2047    2.5331 H   0  0  0  0  0  0  0  0  0  0  0  0
    0.5151    2.9340    3.7426 H   0  0  0  0  0  0  0  0  0  0  0  0
   -1.8553    2.8341    2.7120 H   0  0  0  0  0  0  0  0  0  0  0  0
    5.5183   -2.0265    1.1570 H   0  0  0  0  0  0  0  0  0  0  0  0
  1  2  1  0  0  0  0 
  1  3  1  0  0  0  0 
  3  4  2  0  0  0  0 
  3  5  1  0  0  0  0 
  4  6  1  0  0  0  0 
  4  7  1  0  0  0  0 
  5  8  2  0  0  0  0 
  5  9  1  0  0  0  0 
  6 10  2  0  0  0  0 
  6 11  1  0  0  0  0 
  7 12  1  0  0  0  0 
  8 10  1  0  0  0  0 
  8 13  1  0  0  0  0 
  9 14  1  0  0  0  0 
 11 15  2  0  0  0  0 
 12 15  1  0  0  0  0 
 12 16  2  0  0  0  0 
 13 14  2  0  0  0  0 
  2 17  1  0  0  0  0 
  2 18  1  0  0  0  0 
  2 19  1  0  0  0  0 
 10 20  1  0  0  0  0 
 11 21  1  0  0  0  0 
 13 22  1  0  0  0  0 
 14 23  1  0  0  0  0 
 15 24  1  0  0  0  0 
M  END
> <cdk:Title>
methoxsalen

> <Conformer>
2

> <SuperDrugID>
SD000011

$$$$
methoxsalen
  CDK     0628171801

 24 26  0  0  0  0  0  0  0  0999 V2000
   -0.3289   -0.9197   -0.2065 O   0  0  0  0  0  0  0  0  0  0  0  0
   -0.1589   -0.4256   -1.5465 C   0  0  0  0  0  0  0  0  0  0  0  0
    0.5452   -0.3833    0.7029 C   0  0  0  0  0  0  0  0  0  0  0  0
    1.9033   -0.7812    0.7949 C   0  0  0  0  0  0  0  0  0  0  0  0
    0.0694    0.5643    1.6276 C   0  0  0  0  0  0  0  0  0  0  0  0
    2.7659   -0.2139    1.7800 C   0  0  0  0  0  0  0  0  0  0  0  0
    2.4021   -1.7270   -0.0577 O   0  0  0  0  0  0  0  0  0  0  0  0
    0.9061    1.1009    2.6050 C   0  0  0  0  0  0  0  0  0  0  0  0
   -1.1779    1.0810    1.7602 O   0  0  0  0  0  0  0  0  0  0  0  0
    2.2582    0.7336    2.7009 C   0  0  0  0  0  0  0  0  0  0  0  0
    4.1131   -0.6344    1.8086 C   0  0  0  0  0  0  0  0  0  0  0  0
    3.6971   -2.1591   -0.0266 C   0  0  0  0  0  0  0  0  0  0  0  0
    0.1341    1.9693    3.3642 C   0  0  0  0  0  0  0  0  0  0  0  0
   -1.1462    1.9314    2.8177 C   0  0  0  0  0  0  0  0  0  0  0  0
    4.5863   -1.6087    0.9114 C   0  0  0  0  0  0  0  0  0  0  0  0
    4.0759   -3.0351   -0.8363 O   0  0  0  0  0  0  0  0  0  0  0  0
   -0.9897   -0.7939   -2.1487 H   0  0  0  0  0  0  0  0  0  0  0  0
   -0.1638    0.6682   -1.5826 H   0  0  0  0  0  0  0  0  0  0  0  0
    0.7654   -0.8037   -1.9884 H   0  0  0  0  0  0  0  0  0  0  0  0
    2.8495    1.1411    3.4299 H   0  0  0  0  0  0  0  0  0  0  0  0
    4.7656   -0.2344    2.4887 H   0  0  0  0  0  0  0  0  0  0  0  0
    0.4356    2.5216    4.1694 H   0  0  0  0  0  0  0  0  0  0  0  0
   -1.9485    2.4609    3.1638 H   0  0  0  0  0  0  0  0  0  0  0  0
    5.5640   -1.9107    0.9423 H   0  0  0  0  0  0  0  0  0  0  0  0
  1  2  1  0  0  0  0 
  1  3  1  0  0  0  0 
  3  4  2  0  0  0  0 
  3  5  1  0  0  0  0 
  4  6  1  0  0  0  0 
  4  7  1  0  0  0  0 
  5  8  2  0  0  0  0 
  5  9  1  0  0  0  0 
  6 10  2  0  0  0  0 
  6 11  1  0  0  0  0 
  7 12  1  0  0  0  0 
  8 10  1  0  0  0  0 
  8 13  1  0  0  0  0 
  9 14  1  0  0  0  0 
 11 15  2  0  0  0  0 
 12 15  1  0  0  0  0 
 12 16  2  0  0  0  0 
 13 14  2  0  0  0  0 
  2 17  1  0  0  0  0 
  2 18  1  0  0  0  0 
  2 19  1  0  0  0  0 
 10 20  1  0  0  0  0 
 11 21  1  0  0  0  0 
 13 22  1  0  0  0  0 
 14 23  1  0  0  0  0 
 15 24  1  0  0  0  0 
M  END
> <cdk:Title>
methoxsalen

> <Conformer>
3

> <SuperDrugID>
SD000011

$$$$
methoxsalen
  CDK     0628171801

 24 26  0  0  0  0  0  0  0  0999 V2000
    0.2122    0.0042   -0.6525 O   0  0  0  0  0  0  0  0  0  0  0  0
   -0.5328   -1.0827   -1.2312 C   0  0  0  0  0  0  0  0  0  0  0  0
    0.6316   -0.2290    0.6295 C   0  0  0  0  0  0  0  0  0  0  0  0
    1.7078   -1.0983    0.9402 C   0  0  0  0  0  0  0  0  0  0  0  0
    0.0112    0.4604    1.6865 C   0  0  0  0  0  0  0  0  0  0  0  0
    2.1275   -1.2924    2.2893 C   0  0  0  0  0  0  0  0  0  0  0  0
    2.3722   -1.7559   -0.0573 O   0  0  0  0  0  0  0  0  0  0  0  0
    0.4341    0.2891    3.0037 C   0  0  0  0  0  0  0  0  0  0  0  0
   -1.0050    1.3565    1.6444 O   0  0  0  0  0  0  0  0  0  0  0  0
    1.4872   -0.5814    3.3328 C   0  0  0  0  0  0  0  0  0  0  0  0
    3.1905   -2.1885    2.5394 C   0  0  0  0  0  0  0  0  0  0  0  0
    3.4111   -2.6135    0.1667 C   0  0  0  0  0  0  0  0  0  0  0  0
   -0.3530    1.1173    3.7902 C   0  0  0  0  0  0  0  0  0  0  0  0
   -1.2295    1.7606    2.9211 C   0  0  0  0  0  0  0  0  0  0  0  0
    3.8350   -2.8561    1.4831 C   0  0  0  0  0  0  0  0  0  0  0  0
    3.9738   -3.1705   -0.8027 O   0  0  0  0  0  0  0  0  0  0  0  0
   -0.9395   -0.7463   -2.1852 H   0  0  0  0  0  0  0  0  0  0  0  0
    0.1166   -1.9393   -1.4232 H   0  0  0  0  0  0  0  0  0  0  0  0
   -1.3691   -1.3930   -0.5982 H   0  0  0  0  0  0  0  0  0  0  0  0
    1.7876   -0.6820    4.3055 H   0  0  0  0  0  0  0  0  0  0  0  0
    3.5063   -2.3651    3.4976 H   0  0  0  0  0  0  0  0  0  0  0  0
   -0.3007    1.2367    4.8039 H   0  0  0  0  0  0  0  0  0  0  0  0
   -1.9363    2.4423    3.2030 H   0  0  0  0  0  0  0  0  0  0  0  0
    4.6006   -3.5058    1.6767 H   0  0  0  0  0  0  0  0  0  0  0  0
  1  2  1  0  0  0  0 
  1  3  1  0  0  0  0 
  3  4  2  0  0  0  0 
  3  5  1  0  0  0  0 
  4  6  1  0  0  0  0 
  4  7  1  0  0  0  0 
  5  8  2  0  0  0  0 
  5  9  1  0  0  0  0 
  6 10  2  0  0  0  0 
  6 11  1  0  0  0  0 
  7 12  1  0  0  0  0 
  8 10  1  0  0  0  0 
  8 13  1  0  0  0  0 
  9 14  1  0  0  0  0 
 11 15  2  0  0  0  0 
 12 15  1  0  0  0  0 
 12 16  2  0  0  0  0 
 13 14  2  0  0  0  0 
  2 17  1  0  0  0  0 
  2 18  1  0  0  0  0 
  2 19  1  0  0  0  0 
 10 20  1  0  0  0  0 
 11 21  1  0  0  0  0 
 13 22  1  0  0  0  0 
 14 23  1  0  0  0  0 
 15 24  1  0  0  0  0 
M  END
> <cdk:Title>
methoxsalen

> <Conformer>
4

> <SuperDrugID>
SD000011

$$$$
methoxsalen
  CDK     0628171801

 24 26  0  0  0  0  0  0  0  0999 V2000
    0.4070   -0.1683   -0.7267 O   0  0  0  0  0  0  0  0  0  0  0  0
   -0.7709   -0.8798   -1.1495 C   0  0  0  0  0  0  0  0  0  0  0  0
    0.6806   -0.2730    0.6120 C   0  0  0  0  0  0  0  0  0  0  0  0
    1.8259   -0.9815    1.0451 C   0  0  0  0  0  0  0  0  0  0  0  0
   -0.1125    0.3572    1.5915 C   0  0  0  0  0  0  0  0  0  0  0  0
    2.1529   -1.0749    2.4306 C   0  0  0  0  0  0  0  0  0  0  0  0
    2.6491   -1.5748    0.1281 O   0  0  0  0  0  0  0  0  0  0  0  0
    0.1989    0.2601    2.9466 C   0  0  0  0  0  0  0  0  0  0  0  0
   -1.2215    1.1188    1.4342 O   0  0  0  0  0  0  0  0  0  0  0  0
    1.3250   -0.4503    3.3940 C   0  0  0  0  0  0  0  0  0  0  0  0
    3.3171   -1.7856    2.7954 C   0  0  0  0  0  0  0  0  0  0  0  0
    3.7786   -2.2631    0.4696 C   0  0  0  0  0  0  0  0  0  0  0  0
   -0.7668    0.9762    3.6375 C   0  0  0  0  0  0  0  0  0  0  0  0
   -1.6236    1.4974    2.6739 C   0  0  0  0  0  0  0  0  0  0  0  0
    4.1342   -2.3851    1.8225 C   0  0  0  0  0  0  0  0  0  0  0  0
    4.4858   -2.7740   -0.4263 O   0  0  0  0  0  0  0  0  0  0  0  0
   -0.8301   -0.8387   -2.2375 H   0  0  0  0  0  0  0  0  0  0  0  0
   -0.7421   -1.9317   -0.8550 H   0  0  0  0  0  0  0  0  0  0  0  0
   -1.6712   -0.4129   -0.7458 H   0  0  0  0  0  0  0  0  0  0  0  0
    1.5396   -0.4977    4.3946 H   0  0  0  0  0  0  0  0  0  0  0  0
    3.5870   -1.8674    3.7788 H   0  0  0  0  0  0  0  0  0  0  0  0
   -0.8362    1.1032    4.6487 H   0  0  0  0  0  0  0  0  0  0  0  0
   -2.4365    2.0813    2.8707 H   0  0  0  0  0  0  0  0  0  0  0  0
    4.9748   -2.8972    2.1007 H   0  0  0  0  0  0  0  0  0  0  0  0
  1  2  1  0  0  0  0 
  1  3  1  0  0  0  0 
  3  4  2  0  0  0  0 
  3  5  1  0  0  0  0 
  4  6  1  0  0  0  0 
  4  7  1  0  0  0  0 
  5  8  2  0  0  0  0 
  5  9  1  0  0  0  0 
  6 10  2  0  0  0  0 
  6 11  1  0  0  0  0 
  7 12  1  0  0  0  0 
  8 10  1  0  0  0  0 
  8 13  1  0  0  0  0 
  9 14  1  0  0  0  0 
 11 15  2  0  0  0  0 
 12 15  1  0  0  0  0 
 12 16  2  0  0  0  0 
 13 14  2  0  0  0  0 
  2 17  1  0  0  0  0 
  2 18  1  0  0  0  0 
  2 19  1  0  0  0  0 
 10 20  1  0  0  0  0 
 11 21  1  0  0  0  0 
 13 22  1  0  0  0  0 
 14 23  1  0  0  0  0 
 15 24  1  0  0  0  0 
M  END
> <cdk:Title>
methoxsalen

> <Conformer>
5

> <SuperDrugID>
SD000011

$$$$
methoxsalen
  CDK     0628171801

 24 26  0  0  0  0  0  0  0  0999 V2000
   -0.1327   -1.0584   -0.2872 O   0  0  0  0  0  0  0  0  0  0  0  0
   -0.3927   -0.2581   -1.4558 C   0  0  0  0  0  0  0  0  0  0  0  0
    0.5923   -0.4167    0.6832 C   0  0  0  0  0  0  0  0  0  0  0  0
    1.9090   -0.8430    0.9759 C   0  0  0  0  0  0  0  0  0  0  0  0
    0.0541    0.6308    1.4565 C   0  0  0  0  0  0  0  0  0  0  0  0
    2.6733   -0.2187    2.0066 C   0  0  0  0  0  0  0  0  0  0  0  0
    2.4593   -1.8825    0.2779 O   0  0  0  0  0  0  0  0  0  0  0  0
    0.8010    1.2481    2.4580 C   0  0  0  0  0  0  0  0  0  0  0  0
   -1.1789    1.1877    1.4015 O   0  0  0  0  0  0  0  0  0  0  0  0
    2.1130    0.8445    2.7538 C   0  0  0  0  0  0  0  0  0  0  0  0
    3.9750   -0.7030    2.2584 C   0  0  0  0  0  0  0  0  0  0  0  0
    3.7170   -2.3601    0.5141 C   0  0  0  0  0  0  0  0  0  0  0  0
   -0.0047    2.2260    3.0209 C   0  0  0  0  0  0  0  0  0  0  0  0
   -1.2216    2.1574    2.3503 C   0  0  0  0  0  0  0  0  0  0  0  0
    4.5063   -1.7705    1.5152 C   0  0  0  0  0  0  0  0  0  0  0  0
    4.1522   -3.3194   -0.1610 O   0  0  0  0  0  0  0  0  0  0  0  0
   -0.8621   -0.8894   -2.2111 H   0  0  0  0  0  0  0  0  0  0  0  0
   -1.0836    0.5550   -1.2235 H   0  0  0  0  0  0  0  0  0  0  0  0
    0.5247    0.1536   -1.8851 H   0  0  0  0  0  0  0  0  0  0  0  0
    2.6369    1.3054    3.5018 H   0  0  0  0  0  0  0  0  0  0  0  0
    4.5504   -0.2849    2.9933 H   0  0  0  0  0  0  0  0  0  0  0  0
    0.2382    2.8665    3.7793 H   0  0  0  0  0  0  0  0  0  0  0  0
   -2.0311    2.7500    2.5466 H   0  0  0  0  0  0  0  0  0  0  0  0
    5.4533   -2.1108    1.7071 H   0  0  0  0  0  0  0  0  0  0  0  0
  1  2  1  0  0  0  0 
  1  3  1  0  0  0  0 
  3  4  2  0  0  0  0 
  3  5  1  0  0  0  0 
  4  6  1  0  0  0  0 
  4  7  1  0  0  0  0 
  5  8  2  0  0  0  0 
  5  9  1  0  0  0  0 
  6 10  2  0  0  0  0 
  6 11  1  0  0  0  0 
  7 12  1  0  0  0  0 
  8 10  1  0  0  0  0 
  8 13  1  0  0  0  0 
  9 14  1  0  0  0  0 
 11 15  2  0  0  0  0 
 12 15  1  0  0  0  0 
 12 16  2  0  0  0  0 
 13 14  2  0  0  0  0 
  2 17  1  0  0  0  0 
  2 18  1  0  0  0  0 
  2 19  1  0  0  0  0 
 10 20  1  0  0  0  0 
 11 21  1  0  0  0  0 
 13 22  1  0  0  0  0 
 14 23  1  0  0  0  0 
 15 24  1  0  0  0  0 
M  END
> <cdk:Title>
methoxsalen

> <Conformer>
6

> <SuperDrugID>
SD000011

$$$$
methoxsalen
  CDK     0628171801

 24 26  0  0  0  0  0  0  0  0999 V2000
    0.1719   -1.0178   -0.4816 O   0  0  0  0  0  0  0  0  0  0  0  0
   -0.6839   -0.2522   -1.3484 C   0  0  0  0  0  0  0  0  0  0  0  0
    0.6509   -0.4115    0.6579 C   0  0  0  0  0  0  0  0  0  0  0  0
    1.9676   -0.7424    1.0612 C   0  0  0  0  0  0  0  0  0  0  0  0
   -0.0765    0.4786    1.4834 C   0  0  0  0  0  0  0  0  0  0  0  0
    2.5391   -0.1901    2.2464 C   0  0  0  0  0  0  0  0  0  0  0  0
    2.7124   -1.6129    0.3139 O   0  0  0  0  0  0  0  0  0  0  0  0
    0.4881    1.0246    2.6368 C   0  0  0  0  0  0  0  0  0  0  0  0
   -1.3442    0.9427    1.3561 O   0  0  0  0  0  0  0  0  0  0  0  0
    1.7920    0.7072    3.0423 C   0  0  0  0  0  0  0  0  0  0  0  0
    3.8527   -0.5687    2.5963 C   0  0  0  0  0  0  0  0  0  0  0  0
    3.9843   -1.9855    0.6406 C   0  0  0  0  0  0  0  0  0  0  0  0
   -0.4596    1.8510    3.2167 C   0  0  0  0  0  0  0  0  0  0  0  0
   -1.5838    1.7739    2.4020 C   0  0  0  0  0  0  0  0  0  0  0  0
    4.5834   -1.4638    1.7983 C   0  0  0  0  0  0  0  0  0  0  0  0
    4.5996   -2.7885   -0.0948 O   0  0  0  0  0  0  0  0  0  0  0  0
   -0.7414   -0.7580   -2.3132 H   0  0  0  0  0  0  0  0  0  0  0  0
   -0.3027    0.7582   -1.5151 H   0  0  0  0  0  0  0  0  0  0  0  0
   -1.6923   -0.2070   -0.9353 H   0  0  0  0  0  0  0  0  0  0  0  0
    2.1791    1.1141    3.8978 H   0  0  0  0  0  0  0  0  0  0  0  0
    4.2898   -0.1932    3.4430 H   0  0  0  0  0  0  0  0  0  0  0  0
   -0.3554    2.4020    4.0715 H   0  0  0  0  0  0  0  0  0  0  0  0
   -2.4619    2.2687    2.5680 H   0  0  0  0  0  0  0  0  0  0  0  0
    5.5357   -1.7282    2.0627 H   0  0  0  0  0  0  0  0  0  0  0  0
  1  2  1  0  0  0  0 
  1  3  1  0  0  0  0 
  3  4  2  0  0  0  0 
  3  5  1  0  0  0  0 
  4  6  1  0  0  0  0 
  4  7  1  0  0  0  0 
  5  8  2  0  0  0  0 
  5  9  1  0  0  0  0 
  6 10  2  0  0  0  0 
  6 11  1  0  0  0  0 
  7 12  1  0  0  0  0 
  8 10  1  0  0  0  0 
  8 13  1  0  0  0  0 
  9 14  1  0  0  0  0 
 11 15  2  0  0  0  0 
 12 15  1  0  0  0  0 
 12 16  2  0  0  0  0 
 13 14  2  0  0  0  0 
  2 17  1  0  0  0  0 
  2 18  1  0  0  0  0 
  2 19  1  0  0  0  0 
 10 20  1  0  0  0  0 
 11 21  1  0  0  0  0 
 13 22  1  0  0  0  0 
 14 23  1  0  0  0  0 
 15 24  1  0  0  0  0 
M  END
> <cdk:Title>
methoxsalen

> <Conformer>
7

> <SuperDrugID>
SD000011

$$$$
methoxsalen
  CDK     0628171801

 24 26  0  0  0  0  0  0  0  0999 V2000
    0.4647   -0.5425   -0.7229 O   0  0  0  0  0  0  0  0  0  0  0  0
   -0.9017   -0.6056   -1.1689 C   0  0  0  0  0  0  0  0  0  0  0  0
    0.7007   -0.3306    0.6168 C   0  0  0  0  0  0  0  0  0  0  0  0
    1.8101   -0.9981    1.1910 C   0  0  0  0  0  0  0  0  0  0  0  0
   -0.0439    0.5315    1.4565 C   0  0  0  0  0  0  0  0  0  0  0  0
    2.1538   -0.8156    2.5639 C   0  0  0  0  0  0  0  0  0  0  0  0
    2.5792   -1.8292    0.4237 O   0  0  0  0  0  0  0  0  0  0  0  0
    0.2887    0.7009    2.8011 C   0  0  0  0  0  0  0  0  0  0  0  0
   -1.1218    1.3037    1.1728 O   0  0  0  0  0  0  0  0  0  0  0  0
    1.3819    0.0415    3.3803 C   0  0  0  0  0  0  0  0  0  0  0  0
    3.2770   -1.5032    3.0708 C   0  0  0  0  0  0  0  0  0  0  0  0
    3.6666   -2.5011    0.9024 C   0  0  0  0  0  0  0  0  0  0  0  0
   -0.6200    1.5906    3.3489 C   0  0  0  0  0  0  0  0  0  0  0  0
   -1.4762    1.9485    2.3134 C   0  0  0  0  0  0  0  0  0  0  0  0
    4.0377   -2.3497    2.2480 C   0  0  0  0  0  0  0  0  0  0  0  0
    4.3200   -3.2424    0.1357 O   0  0  0  0  0  0  0  0  0  0  0  0
   -0.9204   -1.0486   -2.1656 H   0  0  0  0  0  0  0  0  0  0  0  0
   -1.5212   -1.2198   -0.5110 H   0  0  0  0  0  0  0  0  0  0  0  0
   -1.3187    0.3993   -1.2431 H   0  0  0  0  0  0  0  0  0  0  0  0
    1.6102    0.1905    4.3666 H   0  0  0  0  0  0  0  0  0  0  0  0
    3.5523   -1.3903    4.0508 H   0  0  0  0  0  0  0  0  0  0  0  0
   -0.6522    1.9202    4.3161 H   0  0  0  0  0  0  0  0  0  0  0  0
   -2.2562    2.6026    2.3985 H   0  0  0  0  0  0  0  0  0  0  0  0
    4.8484   -2.8438    2.6291 H   0  0  0  0  0  0  0  0  0  0  0  0
  1  2  1  0  0  0  0 
  1  3  1  0  0  0  0 
  3  4  2  0  0  0  0 
  3  5  1  0  0  0  0 
  4  6  1  0  0  0  0 
  4  7  1  0  0  0  0 
  5  8  2  0  0  0  0 
  5  9  1  0  0  0  0 
  6 10  2  0  0  0  0 
  6 11  1  0  0  0  0 
  7 12  1  0  0  0  0 
  8 10  1  0  0  0  0 
  8 13  1  0  0  0  0 
  9 14  1  0  0  0  0 
 11 15  2  0  0  0  0 
 12 15  1  0  0  0  0 
 12 16  2  0  0  0  0 
 13 14  2  0  0  0  0 
  2 17  1  0  0  0  0 
  2 18  1  0  0  0  0 
  2 19  1  0  0  0  0 
 10 20  1  0  0  0  0 
 11 21  1  0  0  0  0 
 13 22  1  0  0  0  0 
 14 23  1  0  0  0  0 
 15 24  1  0  0  0  0 
M  END
> <cdk:Title>
methoxsalen

> <Conformer>
8

> <SuperDrugID>
SD000011

$$$$
methoxsalen
  CDK     0628171801

 24 26  0  0  0  0  0  0  0  0999 V2000
    0.3624   -0.8132   -0.6327 O   0  0  0  0  0  0  0  0  0  0  0  0
   -0.8579   -0.3927   -1.2623 C   0  0  0  0  0  0  0  0  0  0  0  0
    0.6863   -0.3767    0.6387 C   0  0  0  0  0  0  0  0  0  0  0  0
    1.9132   -0.8528    1.1644 C   0  0  0  0  0  0  0  0  0  0  0  0
   -0.0740    0.4900    1.4644 C   0  0  0  0  0  0  0  0  0  0  0  0
    2.3628   -0.4774    2.4645 C   0  0  0  0  0  0  0  0  0  0  0  0
    2.6972   -1.6936    0.4194 O   0  0  0  0  0  0  0  0  0  0  0  0
    0.3698    0.8546    2.7361 C   0  0  0  0  0  0  0  0  0  0  0  0
   -1.2671    1.0936    1.2365 O   0  0  0  0  0  0  0  0  0  0  0  0
    1.5814    0.3876    3.2613 C   0  0  0  0  0  0  0  0  0  0  0  0
    3.5927   -0.9869    2.9266 C   0  0  0  0  0  0  0  0  0  0  0  0
    3.8908   -2.1960    0.8518 C   0  0  0  0  0  0  0  0  0  0  0  0
   -0.5783    1.6993    3.2901 C   0  0  0  0  0  0  0  0  0  0  0  0
   -1.5798    1.8267    2.3348 C   0  0  0  0  0  0  0  0  0  0  0  0
    4.3637   -1.8469    2.1272 C   0  0  0  0  0  0  0  0  0  0  0  0
    4.5458   -2.9589    0.1077 O   0  0  0  0  0  0  0  0  0  0  0  0
   -0.9115   -0.8513   -2.2510 H   0  0  0  0  0  0  0  0  0  0  0  0
   -1.7266   -0.7203   -0.6893 H   0  0  0  0  0  0  0  0  0  0  0  0
   -0.8789    0.6906   -1.3897 H   0  0  0  0  0  0  0  0  0  0  0  0
    1.8808    0.6718    4.1962 H   0  0  0  0  0  0  0  0  0  0  0  0
    3.9393   -0.7347    3.8541 H   0  0  0  0  0  0  0  0  0  0  0  0
   -0.5460    2.1372    4.2114 H   0  0  0  0  0  0  0  0  0  0  0  0
   -2.4276    2.3869    2.4372 H   0  0  0  0  0  0  0  0  0  0  0  0
    5.2544   -2.2094    2.4750 H   0  0  0  0  0  0  0  0  0  0  0  0
  1  2  1  0  0  0  0 
  1  3  1  0  0  0  0 
  3  4  2  0  0  0  0 
  3  5  1  0  0  0  0 
  4  6  1  0  0  0  0 
  4  7  1  0  0  0  0 
  5  8  2  0  0  0  0 
  5  9  1  0  0  0  0 
  6 10  2  0  0  0  0 
  6 11  1  0  0  0  0 
  7 12  1  0  0  0  0 
  8 10  1  0  0  0  0 
  8 13  1  0  0  0  0 
  9 14  1  0  0  0  0 
 11 15  2  0  0  0  0 
 12 15  1  0  0  0  0 
 12 16  2  0  0  0  0 
 13 14  2  0  0  0  0 
  2 17  1  0  0  0  0 
  2 18  1  0  0  0  0 
  2 19  1  0  0  0  0 
 10 20  1  0  0  0  0 
 11 21  1  0  0  0  0 
 13 22  1  0  0  0  0 
 14 23  1  0  0  0  0 
 15 24  1  0  0  0  0 
M  END
> <cdk:Title>
methoxsalen

> <Conformer>
9

> <SuperDrugID>
SD000011

$$$$
methoxsalen
  CDK     0628171801

 24 26  0  0  0  0  0  0  0  0999 V2000
    0.2495   -0.7371   -0.6159 O   0  0  0  0  0  0  0  0  0  0  0  0
    0.9600   -1.6065   -1.5075 C   0  0  0  0  0  0  0  0  0  0  0  0
    0.7507   -0.4195    0.6304 C   0  0  0  0  0  0  0  0  0  0  0  0
    1.9650   -0.8422    1.2485 C   0  0  0  0  0  0  0  0  0  0  0  0
   -0.0773    0.4460    1.3718 C   0  0  0  0  0  0  0  0  0  0  0  0
    2.3118   -0.3979    2.5631 C   0  0  0  0  0  0  0  0  0  0  0  0
    2.8356   -1.6814    0.6115 O   0  0  0  0  0  0  0  0  0  0  0  0
    0.2631    0.8771    2.6521 C   0  0  0  0  0  0  0  0  0  0  0  0
   -1.2706    0.9890    1.0216 O   0  0  0  0  0  0  0  0  0  0  0  0
    1.4515    0.4712    3.2728 C   0  0  0  0  0  0  0  0  0  0  0  0
    3.5239   -0.8426    3.1339 C   0  0  0  0  0  0  0  0  0  0  0  0
    4.0100   -2.1227    1.1437 C   0  0  0  0  0  0  0  0  0  0  0  0
   -0.7553    1.7077    3.0928 C   0  0  0  0  0  0  0  0  0  0  0  0
   -1.6881    1.7562    2.0617 C   0  0  0  0  0  0  0  0  0  0  0  0
    4.3802   -1.7059    2.4314 C   0  0  0  0  0  0  0  0  0  0  0  0
    4.7317   -2.8904    0.4708 O   0  0  0  0  0  0  0  0  0  0  0  0
    0.3752   -1.7088   -2.4213 H   0  0  0  0  0  0  0  0  0  0  0  0
    1.9315   -1.1866   -1.7729 H   0  0  0  0  0  0  0  0  0  0  0  0
    1.0829   -2.5993   -1.0716 H   0  0  0  0  0  0  0  0  0  0  0  0
    1.6752    0.8043    4.2143 H   0  0  0  0  0  0  0  0  0  0  0  0
    3.7926   -0.5377    4.0735 H   0  0  0  0  0  0  0  0  0  0  0  0
   -0.8098    2.1872    3.9928 H   0  0  0  0  0  0  0  0  0  0  0  0
   -2.5597    2.2899    2.0820 H   0  0  0  0  0  0  0  0  0  0  0  0
    5.2569   -2.0222    2.8552 H   0  0  0  0  0  0  0  0  0  0  0  0
  1  2  1  0  0  0  0 
  1  3  1  0  0  0  0 
  3  4  2  0  0  0  0 
  3  5  1  0  0  0  0 
  4  6  1  0  0  0  0 
  4  7  1  0  0  0  0 
  5  8  2  0  0  0  0 
  5  9  1  0  0  0  0 
  6 10  2  0  0  0  0 
  6 11  1  0  0  0  0 
  7 12  1  0  0  0  0 
  8 10  1  0  0  0  0 
  8 13  1  0  0  0  0 
  9 14  1  0  0  0  0 
 11 15  2  0  0  0  0 
 12 15  1  0  0  0  0 
 12 16  2  0  0  0  0 
 13 14  2  0  0  0  0 
  2 17  1  0  0  0  0 
  2 18  1  0  0  0  0 
  2 19  1  0  0  0  0 
 10 20  1  0  0  0  0 
 11 21  1  0  0  0  0 
 13 22  1  0  0  0  0 
 14 23  1  0  0  0  0 
 15 24  1  0  0  0  0 
M  END
> <cdk:Title>
methoxsalen

> <Conformer>
10

> <SuperDrugID>
SD000011

$$$$
