acenocoumarol
  CDK     0628171802

 39 41  0  0  0  0  0  0  0  0999 V2000
   -1.6025   -3.1065   -0.6298 C   0  0  0  0  0  0  0  0  0  0  0  0
   -0.6721   -1.9419   -0.8399 C   0  0  2  0  0  0  0  0  0  0  0  0
    0.6855   -2.4249   -1.3027 C   0  0  0  0  0  0  0  0  0  0  0  0
    0.9555   -2.6068   -2.6890 C   0  0  0  0  0  0  0  0  0  0  0  0
   -0.0140   -2.3408   -3.6041 O   0  0  0  0  0  0  0  0  0  0  0  0
    2.2118   -3.0678   -3.1561 C   0  0  0  0  0  0  0  0  0  0  0  0
    3.2151   -3.3536   -2.1971 C   0  0  0  0  0  0  0  0  0  0  0  0
    2.9441   -3.1835   -0.8760 O   0  0  0  0  0  0  0  0  0  0  0  0
    1.7428   -2.7439   -0.4097 C   0  0  0  0  0  0  0  0  0  0  0  0
    1.6630   -2.6566    0.8348 O   0  0  0  0  0  0  0  0  0  0  0  0
    4.4832   -3.8157   -2.5959 C   0  0  0  0  0  0  0  0  0  0  0  0
    4.7674   -3.9983   -3.9602 C   0  0  0  0  0  0  0  0  0  0  0  0
    3.7805   -3.7234   -4.9240 C   0  0  0  0  0  0  0  0  0  0  0  0
    2.5102   -3.2610   -4.5256 C   0  0  0  0  0  0  0  0  0  0  0  0
   -2.2025   -5.2053    0.5063 C   0  0  0  0  0  0  0  0  0  0  0  0
   -1.3418   -4.1053    0.3376 C   0  0  0  0  0  0  0  0  0  0  0  0
   -2.7774   -3.2493   -1.4056 C   0  0  0  0  0  0  0  0  0  0  0  0
   -3.6450   -4.3432   -1.2290 C   0  0  0  0  0  0  0  0  0  0  0  0
   -3.3807   -5.3502   -0.2684 C   0  0  0  0  0  0  0  0  0  0  0  0
   -4.2163   -6.3928   -0.1013 N   0  0  0  0  0  0  0  0  0  0  0  0
   -4.0249   -7.2414    0.6791 O   0  0  0  0  0  0  0  0  0  0  0  0
   -5.2839   -6.5334   -0.7772 O   0  0  0  0  0  0  0  0  0  0  0  0
   -0.6999   -0.9445    0.3689 C   0  0  2  0  0  0  0  0  0  0  0  0
    0.2051    0.2138    0.2061 C   0  0  0  0  0  0  0  0  0  0  0  0
    0.0062    1.1109   -0.7879 O   0  0  0  0  0  0  0  0  0  0  0  0
    1.1670    0.3949    0.9876 O   0  0  0  0  0  0  0  0  0  0  0  0
   -1.0816   -1.3308   -1.6529 H   0  0  0  0  0  0  0  0  0  0  0  0
   -0.4728   -3.1961   -3.7383 H   0  0  0  0  0  0  0  0  0  0  0  0
    5.1995   -4.0214   -1.8953 H   0  0  0  0  0  0  0  0  0  0  0  0
    5.6887   -4.3316   -4.2519 H   0  0  0  0  0  0  0  0  0  0  0  0
    3.9855   -3.8596   -5.9156 H   0  0  0  0  0  0  0  0  0  0  0  0
    1.8119   -3.0701   -5.2472 H   0  0  0  0  0  0  0  0  0  0  0  0
   -1.9575   -5.9071    1.2084 H   0  0  0  0  0  0  0  0  0  0  0  0
   -0.5157   -4.0449    0.9315 H   0  0  0  0  0  0  0  0  0  0  0  0
   -3.0153   -2.5514   -2.1135 H   0  0  0  0  0  0  0  0  0  0  0  0
   -4.4793   -4.3952   -1.8178 H   0  0  0  0  0  0  0  0  0  0  0  0
   -0.4732   -1.4631    1.3034 H   0  0  0  0  0  0  0  0  0  0  0  0
   -1.7127   -0.5456    0.4784 H   0  0  0  0  0  0  0  0  0  0  0  0
    0.6036    1.8822   -0.8798 H   0  0  0  0  0  0  0  0  0  0  0  0
  2  1  1  0  0  0  0 
  2  3  1  0  0  0  0 
  3  4  2  0  0  0  0 
  4  5  1  0  0  0  0 
  4  6  1  0  0  0  0 
  6  7  1  0  0  0  0 
  7  8  1  0  0  0  0 
  8  9  1  0  0  0  0 
  3  9  1  0  0  0  0 
  9 10  2  0  0  0  0 
  7 11  2  0  0  0  0 
 11 12  1  0  0  0  0 
 12 13  2  0  0  0  0 
 13 14  1  0  0  0  0 
  6 14  2  0  0  0  0 
 16  1  2  0  0  0  0 
  1 17  1  0  0  0  0 
 15 16  1  0  0  0  0 
 17 18  2  0  0  0  0 
 18 19  1  0  0  0  0 
 15 19  2  0  0  0  0 
 19 20  1  0  0  0  0 
 20 21  2  0  0  0  0 
 20 22  1  0  0  0  0 
  2 23  1  0  0  0  0 
 23 24  1  0  0  0  0 
 24 25  1  0  0  0  0 
 24 26  2  0  0  0  0 
  2 27  1  0  0  0  0 
  5 28  1  0  0  0  0 
 11 29  1  0  0  0  0 
 12 30  1  0  0  0  0 
 13 31  1  0  0  0  0 
 14 32  1  0  0  0  0 
 15 33  1  0  0  0  0 
 16 34  1  0  0  0  0 
 17 35  1  0  0  0  0 
 18 36  1  0  0  0  0 
 23 37  1  0  0  0  0 
 23 38  1  0  0  0  0 
 25 39  1  0  0  0  0 
M  CHG  1  20   1
M  CHG  1  22  -1
M  END
> <cdk:Title>
acenocoumarol

> <Conformer>
1

> <SuperDrugID>
SD000025

$$$$
acenocoumarol
  CDK     0628171802

 39 41  0  0  0  0  0  0  0  0999 V2000
   -1.4417   -3.1313   -0.6817 C   0  0  0  0  0  0  0  0  0  0  0  0
   -0.4799   -1.9914   -0.8836 C   0  0  2  0  0  0  0  0  0  0  0  0
    0.8322   -2.5052   -1.4266 C   0  0  0  0  0  0  0  0  0  0  0  0
    0.9765   -2.7458   -2.8237 C   0  0  0  0  0  0  0  0  0  0  0  0
   -0.0622   -2.4805   -3.6608 O   0  0  0  0  0  0  0  0  0  0  0  0
    2.1694   -3.2641   -3.3827 C   0  0  0  0  0  0  0  0  0  0  0  0
    3.2359   -3.5639   -2.5014 C   0  0  0  0  0  0  0  0  0  0  0  0
    3.0893   -3.3263   -1.1711 O   0  0  0  0  0  0  0  0  0  0  0  0
    1.9552   -2.8181   -0.6175 C   0  0  0  0  0  0  0  0  0  0  0  0
    1.9883   -2.6752    0.6240 O   0  0  0  0  0  0  0  0  0  0  0  0
    4.4387   -4.1139   -2.9803 C   0  0  0  0  0  0  0  0  0  0  0  0
    4.5892   -4.3768   -4.3532 C   0  0  0  0  0  0  0  0  0  0  0  0
    3.5478   -4.0666   -5.2469 C   0  0  0  0  0  0  0  0  0  0  0  0
    2.3483   -3.5064   -4.7670 C   0  0  0  0  0  0  0  0  0  0  0  0
   -2.1449   -5.1652    0.5047 C   0  0  0  0  0  0  0  0  0  0  0  0
   -1.2080   -4.1374    0.2847 C   0  0  0  0  0  0  0  0  0  0  0  0
   -2.6315   -3.2199   -1.4444 C   0  0  0  0  0  0  0  0  0  0  0  0
   -3.5680   -4.2459   -1.2211 C   0  0  0  0  0  0  0  0  0  0  0  0
   -3.3536   -5.2406   -0.2341 C   0  0  0  0  0  0  0  0  0  0  0  0
   -4.2616   -6.2126   -0.0111 N   0  0  0  0  0  0  0  0  0  0  0  0
   -4.1075   -7.0588    0.7812 O   0  0  0  0  0  0  0  0  0  0  0  0
   -5.3645   -6.2827   -0.6420 O   0  0  0  0  0  0  0  0  0  0  0  0
   -0.4063   -1.0157    0.3406 C   0  0  2  0  0  0  0  0  0  0  0  0
   -1.6843   -0.3285    0.6335 C   0  0  0  0  0  0  0  0  0  0  0  0
   -1.7993    1.0156    0.5241 O   0  0  0  0  0  0  0  0  0  0  0  0
   -2.6910   -0.9758    1.0001 O   0  0  0  0  0  0  0  0  0  0  0  0
   -0.8814   -1.3346   -1.6638 H   0  0  0  0  0  0  0  0  0  0  0  0
   -0.4402   -3.3593   -3.8732 H   0  0  0  0  0  0  0  0  0  0  0  0
    5.2023   -4.3253   -2.3322 H   0  0  0  0  0  0  0  0  0  0  0  0
    5.4576   -4.7901   -4.7013 H   0  0  0  0  0  0  0  0  0  0  0  0
    3.6648   -4.2506   -6.2471 H   0  0  0  0  0  0  0  0  0  0  0  0
    1.6094   -3.2864   -5.4385 H   0  0  0  0  0  0  0  0  0  0  0  0
   -1.9358   -5.8632    1.2224 H   0  0  0  0  0  0  0  0  0  0  0  0
   -0.3527   -4.1262    0.8442 H   0  0  0  0  0  0  0  0  0  0  0  0
   -2.8328   -2.5270   -2.1696 H   0  0  0  0  0  0  0  0  0  0  0  0
   -4.4169   -4.2550   -1.7909 H   0  0  0  0  0  0  0  0  0  0  0  0
    0.3536   -0.2562    0.1322 H   0  0  0  0  0  0  0  0  0  0  0  0
   -0.1120   -1.5417    1.2486 H   0  0  0  0  0  0  0  0  0  0  0  0
   -2.6508    1.4569    0.7311 H   0  0  0  0  0  0  0  0  0  0  0  0
  2  1  1  0  0  0  0 
  2  3  1  0  0  0  0 
  3  4  2  0  0  0  0 
  4  5  1  0  0  0  0 
  4  6  1  0  0  0  0 
  6  7  1  0  0  0  0 
  7  8  1  0  0  0  0 
  8  9  1  0  0  0  0 
  3  9  1  0  0  0  0 
  9 10  2  0  0  0  0 
  7 11  2  0  0  0  0 
 11 12  1  0  0  0  0 
 12 13  2  0  0  0  0 
 13 14  1  0  0  0  0 
  6 14  2  0  0  0  0 
 16  1  2  0  0  0  0 
  1 17  1  0  0  0  0 
 15 16  1  0  0  0  0 
 17 18  2  0  0  0  0 
 18 19  1  0  0  0  0 
 15 19  2  0  0  0  0 
 19 20  1  0  0  0  0 
 20 21  2  0  0  0  0 
 20 22  1  0  0  0  0 
  2 23  1  0  0  0  0 
 23 24  1  0  0  0  0 
 24 25  1  0  0  0  0 
 24 26  2  0  0  0  0 
  2 27  1  0  0  0  0 
  5 28  1  0  0  0  0 
 11 29  1  0  0  0  0 
 12 30  1  0  0  0  0 
 13 31  1  0  0  0  0 
 14 32  1  0  0  0  0 
 15 33  1  0  0  0  0 
 16 34  1  0  0  0  0 
 17 35  1  0  0  0  0 
 18 36  1  0  0  0  0 
 23 37  1  0  0  0  0 
 23 38  1  0  0  0  0 
 25 39  1  0  0  0  0 
M  CHG  1  20   1
M  CHG  1  22  -1
M  END
> <cdk:Title>
acenocoumarol

> <Conformer>
2

> <SuperDrugID>
SD000025

$$$$
acenocoumarol
  CDK     0628171802

 39 41  0  0  0  0  0  0  0  0999 V2000
   -1.6091   -3.0998   -0.6350 C   0  0  0  0  0  0  0  0  0  0  0  0
   -0.6775   -1.9375   -0.8372 C   0  0  2  0  0  0  0  0  0  0  0  0
    0.6796   -2.4270   -1.2958 C   0  0  0  0  0  0  0  0  0  0  0  0
    0.9582   -2.6125   -2.6798 C   0  0  0  0  0  0  0  0  0  0  0  0
   -0.0041   -2.3447   -3.6015 O   0  0  0  0  0  0  0  0  0  0  0  0
    2.2153   -3.0781   -3.1416 C   0  0  0  0  0  0  0  0  0  0  0  0
    3.2127   -3.3644   -2.1777 C   0  0  0  0  0  0  0  0  0  0  0  0
    2.9317   -3.1945   -0.8595 O   0  0  0  0  0  0  0  0  0  0  0  0
    1.7299   -2.7536   -0.3991 C   0  0  0  0  0  0  0  0  0  0  0  0
    1.6396   -2.6692    0.8452 O   0  0  0  0  0  0  0  0  0  0  0  0
    4.4856   -3.8266   -2.5620 C   0  0  0  0  0  0  0  0  0  0  0  0
    4.7787   -4.0105   -3.9245 C   0  0  0  0  0  0  0  0  0  0  0  0
    3.7992   -3.7397   -4.8964 C   0  0  0  0  0  0  0  0  0  0  0  0
    2.5267   -3.2769   -4.5096 C   0  0  0  0  0  0  0  0  0  0  0  0
   -2.2006   -5.2000    0.5017 C   0  0  0  0  0  0  0  0  0  0  0  0
   -1.3445   -4.0995    0.3314 C   0  0  0  0  0  0  0  0  0  0  0  0
   -2.7821   -3.2459   -1.4164 C   0  0  0  0  0  0  0  0  0  0  0  0
   -3.6471   -4.3420   -1.2368 C   0  0  0  0  0  0  0  0  0  0  0  0
   -3.3802   -5.3464   -0.2713 C   0  0  0  0  0  0  0  0  0  0  0  0
   -4.2120   -6.3933   -0.0948 N   0  0  0  0  0  0  0  0  0  0  0  0
   -4.0173   -7.2385    0.6902 O   0  0  0  0  0  0  0  0  0  0  0  0
   -5.2807   -6.5422   -0.7698 O   0  0  0  0  0  0  0  0  0  0  0  0
   -0.7022   -0.9412    0.3724 C   0  0  2  0  0  0  0  0  0  0  0  0
    0.2320    0.1934    0.2132 C   0  0  0  0  0  0  0  0  0  0  0  0
    1.3530    0.2852    0.9680 O   0  0  0  0  0  0  0  0  0  0  0  0
    0.0065    1.0867   -0.6333 O   0  0  0  0  0  0  0  0  0  0  0  0
   -1.0854   -1.3246   -1.6468 H   0  0  0  0  0  0  0  0  0  0  0  0
   -0.4659   -3.1990   -3.7315 H   0  0  0  0  0  0  0  0  0  0  0  0
    5.1966   -4.0293   -1.8543 H   0  0  0  0  0  0  0  0  0  0  0  0
    5.7028   -4.3430   -4.2078 H   0  0  0  0  0  0  0  0  0  0  0  0
    4.0129   -3.8802   -5.8868 H   0  0  0  0  0  0  0  0  0  0  0  0
    1.8333   -3.0899   -5.2384 H   0  0  0  0  0  0  0  0  0  0  0  0
   -1.9460   -5.8984    1.2052 H   0  0  0  0  0  0  0  0  0  0  0  0
   -0.5189   -4.0462    0.9271 H   0  0  0  0  0  0  0  0  0  0  0  0
   -3.0231   -2.5530   -2.1301 H   0  0  0  0  0  0  0  0  0  0  0  0
   -4.4806   -4.3967   -1.8273 H   0  0  0  0  0  0  0  0  0  0  0  0
   -0.4806   -1.4592    1.3053 H   0  0  0  0  0  0  0  0  0  0  0  0
   -1.7087   -0.5285    0.4880 H   0  0  0  0  0  0  0  0  0  0  0  0
    1.9859    1.0235    0.8329 H   0  0  0  0  0  0  0  0  0  0  0  0
  2  1  1  0  0  0  0 
  2  3  1  0  0  0  0 
  3  4  2  0  0  0  0 
  4  5  1  0  0  0  0 
  4  6  1  0  0  0  0 
  6  7  1  0  0  0  0 
  7  8  1  0  0  0  0 
  8  9  1  0  0  0  0 
  3  9  1  0  0  0  0 
  9 10  2  0  0  0  0 
  7 11  2  0  0  0  0 
 11 12  1  0  0  0  0 
 12 13  2  0  0  0  0 
 13 14  1  0  0  0  0 
  6 14  2  0  0  0  0 
 16  1  2  0  0  0  0 
  1 17  1  0  0  0  0 
 15 16  1  0  0  0  0 
 17 18  2  0  0  0  0 
 18 19  1  0  0  0  0 
 15 19  2  0  0  0  0 
 19 20  1  0  0  0  0 
 20 21  2  0  0  0  0 
 20 22  1  0  0  0  0 
  2 23  1  0  0  0  0 
 23 24  1  0  0  0  0 
 24 25  1  0  0  0  0 
 24 26  2  0  0  0  0 
  2 27  1  0  0  0  0 
  5 28  1  0  0  0  0 
 11 29  1  0  0  0  0 
 12 30  1  0  0  0  0 
 13 31  1  0  0  0  0 
 14 32  1  0  0  0  0 
 15 33  1  0  0  0  0 
 16 34  1  0  0  0  0 
 17 35  1  0  0  0  0 
 18 36  1  0  0  0  0 
 23 37  1  0  0  0  0 
 23 38  1  0  0  0  0 
 25 39  1  0  0  0  0 
M  CHG  1  20   1
M  CHG  1  22  -1
M  END
> <cdk:Title>
acenocoumarol

> <Conformer>
3

> <SuperDrugID>
SD000025

$$$$
acenocoumarol
  CDK     0628171802

 39 41  0  0  0  0  0  0  0  0999 V2000
   -1.4483   -3.1169   -0.6986 C   0  0  0  0  0  0  0  0  0  0  0  0
   -0.4812   -1.9916   -0.9203 C   0  0  2  0  0  0  0  0  0  0  0  0
    0.8417   -2.5293   -1.4278 C   0  0  0  0  0  0  0  0  0  0  0  0
    1.0390   -2.7618   -2.8204 C   0  0  0  0  0  0  0  0  0  0  0  0
    0.0437   -2.4678   -3.6991 O   0  0  0  0  0  0  0  0  0  0  0  0
    2.2456   -3.3055   -3.3303 C   0  0  0  0  0  0  0  0  0  0  0  0
    3.2745   -3.6261   -2.4121 C   0  0  0  0  0  0  0  0  0  0  0  0
    3.0770   -3.3990   -1.0870 O   0  0  0  0  0  0  0  0  0  0  0  0
    1.9281   -2.8765   -0.5808 C   0  0  0  0  0  0  0  0  0  0  0  0
    1.9276   -2.7563    0.6629 O   0  0  0  0  0  0  0  0  0  0  0  0
    4.4926   -4.1802   -2.8484 C   0  0  0  0  0  0  0  0  0  0  0  0
    4.7020   -4.4143   -4.2179 C   0  0  0  0  0  0  0  0  0  0  0  0
    3.6927   -4.0986   -5.1457 C   0  0  0  0  0  0  0  0  0  0  0  0
    2.4732   -3.5504   -4.7065 C   0  0  0  0  0  0  0  0  0  0  0  0
   -2.1285   -5.1499    0.4972 C   0  0  0  0  0  0  0  0  0  0  0  0
   -1.2068   -4.1123    0.2750 C   0  0  0  0  0  0  0  0  0  0  0  0
   -2.6511   -3.1950   -1.4357 C   0  0  0  0  0  0  0  0  0  0  0  0
   -3.5763   -4.2284   -1.2063 C   0  0  0  0  0  0  0  0  0  0  0  0
   -3.3428   -5.2301   -0.2314 C   0  0  0  0  0  0  0  0  0  0  0  0
   -4.2410   -6.2085   -0.0089 N   0  0  0  0  0  0  0  0  0  0  0  0
   -4.0799   -7.0508    0.7845 O   0  0  0  0  0  0  0  0  0  0  0  0
   -5.3392   -6.2911   -0.6458 O   0  0  0  0  0  0  0  0  0  0  0  0
   -0.4413   -1.0250    0.3127 C   0  0  2  0  0  0  0  0  0  0  0  0
   -1.7519   -0.4403    0.6796 C   0  0  0  0  0  0  0  0  0  0  0  0
   -2.4163    0.3745   -0.1730 O   0  0  0  0  0  0  0  0  0  0  0  0
   -2.2718   -0.6826    1.7944 O   0  0  0  0  0  0  0  0  0  0  0  0
   -0.8676   -1.3438   -1.7150 H   0  0  0  0  0  0  0  0  0  0  0  0
   -0.4376   -3.3125   -3.8218 H   0  0  0  0  0  0  0  0  0  0  0  0
    5.2247   -4.4150   -2.1730 H   0  0  0  0  0  0  0  0  0  0  0  0
    5.5856   -4.8134   -4.5396 H   0  0  0  0  0  0  0  0  0  0  0  0
    3.8446   -4.2685   -6.1417 H   0  0  0  0  0  0  0  0  0  0  0  0
    1.7546   -3.3342   -5.4010 H   0  0  0  0  0  0  0  0  0  0  0  0
   -1.9003   -5.8473    1.2089 H   0  0  0  0  0  0  0  0  0  0  0  0
   -0.3574   -4.0852    0.8400 H   0  0  0  0  0  0  0  0  0  0  0  0
   -2.8706   -2.4885   -2.1419 H   0  0  0  0  0  0  0  0  0  0  0  0
   -4.4320   -4.2328   -1.7641 H   0  0  0  0  0  0  0  0  0  0  0  0
    0.2429   -0.2017    0.0948 H   0  0  0  0  0  0  0  0  0  0  0  0
   -0.0665   -1.5442    1.1945 H   0  0  0  0  0  0  0  0  0  0  0  0
   -3.2797    0.7591    0.0920 H   0  0  0  0  0  0  0  0  0  0  0  0
  2  1  1  0  0  0  0 
  2  3  1  0  0  0  0 
  3  4  2  0  0  0  0 
  4  5  1  0  0  0  0 
  4  6  1  0  0  0  0 
  6  7  1  0  0  0  0 
  7  8  1  0  0  0  0 
  8  9  1  0  0  0  0 
  3  9  1  0  0  0  0 
  9 10  2  0  0  0  0 
  7 11  2  0  0  0  0 
 11 12  1  0  0  0  0 
 12 13  2  0  0  0  0 
 13 14  1  0  0  0  0 
  6 14  2  0  0  0  0 
 16  1  2  0  0  0  0 
  1 17  1  0  0  0  0 
 15 16  1  0  0  0  0 
 17 18  2  0  0  0  0 
 18 19  1  0  0  0  0 
 15 19  2  0  0  0  0 
 19 20  1  0  0  0  0 
 20 21  2  0  0  0  0 
 20 22  1  0  0  0  0 
  2 23  1  0  0  0  0 
 23 24  1  0  0  0  0 
 24 25  1  0  0  0  0 
 24 26  2  0  0  0  0 
  2 27  1  0  0  0  0 
  5 28  1  0  0  0  0 
 11 29  1  0  0  0  0 
 12 30  1  0  0  0  0 
 13 31  1  0  0  0  0 
 14 32  1  0  0  0  0 
 15 33  1  0  0  0  0 
 16 34  1  0  0  0  0 
 17 35  1  0  0  0  0 
 18 36  1  0  0  0  0 
 23 37  1  0  0  0  0 
 23 38  1  0  0  0  0 
 25 39  1  0  0  0  0 
M  CHG  1  20   1
M  CHG  1  22  -1
M  END
> <cdk:Title>
acenocoumarol

> <Conformer>
4

> <SuperDrugID>
SD000025

$$$$
acenocoumarol
  CDK     0628171802

 39 41  0  0  0  0  0  0  0  0999 V2000
   -1.4487   -3.1161   -0.6914 C   0  0  0  0  0  0  0  0  0  0  0  0
   -0.4798   -1.9919   -0.9199 C   0  0  2  0  0  0  0  0  0  0  0  0
    0.8448   -2.5261   -1.4325 C   0  0  0  0  0  0  0  0  0  0  0  0
    1.0415   -2.7571   -2.8261 C   0  0  0  0  0  0  0  0  0  0  0  0
    0.0395   -2.4666   -3.6984 O   0  0  0  0  0  0  0  0  0  0  0  0
    2.2471   -3.2977   -3.3447 C   0  0  0  0  0  0  0  0  0  0  0  0
    3.2802   -3.6168   -2.4293 C   0  0  0  0  0  0  0  0  0  0  0  0
    3.0865   -3.3876   -1.1035 O   0  0  0  0  0  0  0  0  0  0  0  0
    1.9367   -2.8685   -0.5907 C   0  0  0  0  0  0  0  0  0  0  0  0
    1.9376   -2.7467    0.6527 O   0  0  0  0  0  0  0  0  0  0  0  0
    4.4956   -4.1738   -2.8716 C   0  0  0  0  0  0  0  0  0  0  0  0
    4.7004   -4.4093   -4.2424 C   0  0  0  0  0  0  0  0  0  0  0  0
    3.6882   -4.0940   -5.1666 C   0  0  0  0  0  0  0  0  0  0  0  0
    2.4697   -3.5445   -4.7220 C   0  0  0  0  0  0  0  0  0  0  0  0
   -2.1305   -5.1519    0.5010 C   0  0  0  0  0  0  0  0  0  0  0  0
   -1.2087   -4.1113    0.2836 C   0  0  0  0  0  0  0  0  0  0  0  0
   -2.6512   -3.1969   -1.4314 C   0  0  0  0  0  0  0  0  0  0  0  0
   -3.5768   -4.2310   -1.2064 C   0  0  0  0  0  0  0  0  0  0  0  0
   -3.3431   -5.2322   -0.2314 C   0  0  0  0  0  0  0  0  0  0  0  0
   -4.2435   -6.2083   -0.0117 N   0  0  0  0  0  0  0  0  0  0  0  0
   -4.0843   -7.0519    0.7808 O   0  0  0  0  0  0  0  0  0  0  0  0
   -5.3407   -6.2886   -0.6492 O   0  0  0  0  0  0  0  0  0  0  0  0
   -0.4359   -1.0106    0.3020 C   0  0  2  0  0  0  0  0  0  0  0  0
   -1.7482   -0.4406    0.6892 C   0  0  0  0  0  0  0  0  0  0  0  0
   -2.3082   -0.7451    1.8869 O   0  0  0  0  0  0  0  0  0  0  0  0
   -2.3637    0.3370   -0.0733 O   0  0  0  0  0  0  0  0  0  0  0  0
   -0.8742   -1.3515   -1.7155 H   0  0  0  0  0  0  0  0  0  0  0  0
   -0.4380   -3.3132   -3.8238 H   0  0  0  0  0  0  0  0  0  0  0  0
    5.2283   -4.4127   -2.1994 H   0  0  0  0  0  0  0  0  0  0  0  0
    5.5833   -4.8122   -4.5656 H   0  0  0  0  0  0  0  0  0  0  0  0
    3.8369   -4.2667   -6.1628 H   0  0  0  0  0  0  0  0  0  0  0  0
    1.7490   -3.3286   -5.4139 H   0  0  0  0  0  0  0  0  0  0  0  0
   -1.9064   -5.8540    1.2096 H   0  0  0  0  0  0  0  0  0  0  0  0
   -0.3585   -4.0830    0.8486 H   0  0  0  0  0  0  0  0  0  0  0  0
   -2.8682   -2.4931   -2.1407 H   0  0  0  0  0  0  0  0  0  0  0  0
   -4.4321   -4.2406   -1.7668 H   0  0  0  0  0  0  0  0  0  0  0  0
    0.2359   -0.1806    0.0688 H   0  0  0  0  0  0  0  0  0  0  0  0
   -0.0461   -1.5165    1.1834 H   0  0  0  0  0  0  0  0  0  0  0  0
   -3.1730   -0.3639    2.1510 H   0  0  0  0  0  0  0  0  0  0  0  0
  2  1  1  0  0  0  0 
  2  3  1  0  0  0  0 
  3  4  2  0  0  0  0 
  4  5  1  0  0  0  0 
  4  6  1  0  0  0  0 
  6  7  1  0  0  0  0 
  7  8  1  0  0  0  0 
  8  9  1  0  0  0  0 
  3  9  1  0  0  0  0 
  9 10  2  0  0  0  0 
  7 11  2  0  0  0  0 
 11 12  1  0  0  0  0 
 12 13  2  0  0  0  0 
 13 14  1  0  0  0  0 
  6 14  2  0  0  0  0 
 16  1  2  0  0  0  0 
  1 17  1  0  0  0  0 
 15 16  1  0  0  0  0 
 17 18  2  0  0  0  0 
 18 19  1  0  0  0  0 
 15 19  2  0  0  0  0 
 19 20  1  0  0  0  0 
 20 21  2  0  0  0  0 
 20 22  1  0  0  0  0 
  2 23  1  0  0  0  0 
 23 24  1  0  0  0  0 
 24 25  1  0  0  0  0 
 24 26  2  0  0  0  0 
  2 27  1  0  0  0  0 
  5 28  1  0  0  0  0 
 11 29  1  0  0  0  0 
 12 30  1  0  0  0  0 
 13 31  1  0  0  0  0 
 14 32  1  0  0  0  0 
 15 33  1  0  0  0  0 
 16 34  1  0  0  0  0 
 17 35  1  0  0  0  0 
 18 36  1  0  0  0  0 
 23 37  1  0  0  0  0 
 23 38  1  0  0  0  0 
 25 39  1  0  0  0  0 
M  CHG  1  20   1
M  CHG  1  22  -1
M  END
> <cdk:Title>
acenocoumarol

> <Conformer>
5

> <SuperDrugID>
SD000025

$$$$
acenocoumarol
  CDK     0628171802

 39 41  0  0  0  0  0  0  0  0999 V2000
   -1.5867   -3.1121   -0.6127 C   0  0  0  0  0  0  0  0  0  0  0  0
   -0.6480   -1.9573   -0.8317 C   0  0  2  0  0  0  0  0  0  0  0  0
    0.6922   -2.4458   -1.3319 C   0  0  0  0  0  0  0  0  0  0  0  0
    0.9220   -2.5922   -2.7315 C   0  0  0  0  0  0  0  0  0  0  0  0
   -0.0709   -2.3064   -3.6171 O   0  0  0  0  0  0  0  0  0  0  0  0
    2.1666   -3.0296   -3.2451 C   0  0  0  0  0  0  0  0  0  0  0  0
    3.1908   -3.3448   -2.3185 C   0  0  0  0  0  0  0  0  0  0  0  0
    2.9547   -3.2221   -0.9855 O   0  0  0  0  0  0  0  0  0  0  0  0
    1.7672   -2.7985   -0.4733 C   0  0  0  0  0  0  0  0  0  0  0  0
    1.7172   -2.7482    0.7750 O   0  0  0  0  0  0  0  0  0  0  0  0
    4.4525   -3.7810   -2.7609 C   0  0  0  0  0  0  0  0  0  0  0  0
    4.7081   -3.9038   -4.1369 C   0  0  0  0  0  0  0  0  0  0  0  0
    3.7024   -3.5949   -5.0710 C   0  0  0  0  0  0  0  0  0  0  0  0
    2.4362   -3.1633   -4.6295 C   0  0  0  0  0  0  0  0  0  0  0  0
   -2.2160   -5.1969    0.5364 C   0  0  0  0  0  0  0  0  0  0  0  0
   -1.3440   -4.1038    0.3686 C   0  0  0  0  0  0  0  0  0  0  0  0
   -2.7667   -3.2411   -1.3852 C   0  0  0  0  0  0  0  0  0  0  0  0
   -3.6403   -4.3304   -1.2111 C   0  0  0  0  0  0  0  0  0  0  0  0
   -3.3795   -5.3483   -0.2603 C   0  0  0  0  0  0  0  0  0  0  0  0
   -4.2041   -6.4060   -0.1275 N   0  0  0  0  0  0  0  0  0  0  0  0
   -4.0032   -7.2818    0.6201 O   0  0  0  0  0  0  0  0  0  0  0  0
   -5.2669   -6.5416   -0.8133 O   0  0  0  0  0  0  0  0  0  0  0  0
   -0.6735   -0.9594    0.3731 C   0  0  2  0  0  0  0  0  0  0  0  0
    0.1046    0.2824    0.1609 C   0  0  0  0  0  0  0  0  0  0  0  0
    1.4496    0.2422    0.0111 O   0  0  0  0  0  0  0  0  0  0  0  0
   -0.4622    1.3983    0.1458 O   0  0  0  0  0  0  0  0  0  0  0  0
   -1.0623   -1.3358   -1.6309 H   0  0  0  0  0  0  0  0  0  0  0  0
   -0.5363   -3.1579   -3.7556 H   0  0  0  0  0  0  0  0  0  0  0  0
    5.1825   -4.0038   -2.0821 H   0  0  0  0  0  0  0  0  0  0  0  0
    5.6270   -4.2170   -4.4591 H   0  0  0  0  0  0  0  0  0  0  0  0
    3.8939   -3.6801   -6.0723 H   0  0  0  0  0  0  0  0  0  0  0  0
    1.7205   -2.9473   -5.3291 H   0  0  0  0  0  0  0  0  0  0  0  0
   -1.9905   -5.8891    1.2555 H   0  0  0  0  0  0  0  0  0  0  0  0
   -0.5265   -4.0411    0.9776 H   0  0  0  0  0  0  0  0  0  0  0  0
   -3.0059   -2.5343   -2.0868 H   0  0  0  0  0  0  0  0  0  0  0  0
   -4.4793   -4.3720   -1.7950 H   0  0  0  0  0  0  0  0  0  0  0  0
   -0.3222   -1.4355    1.2877 H   0  0  0  0  0  0  0  0  0  0  0  0
   -1.7169   -0.6765    0.5514 H   0  0  0  0  0  0  0  0  0  0  0  0
    1.9601    1.0698   -0.1127 H   0  0  0  0  0  0  0  0  0  0  0  0
  2  1  1  0  0  0  0 
  2  3  1  0  0  0  0 
  3  4  2  0  0  0  0 
  4  5  1  0  0  0  0 
  4  6  1  0  0  0  0 
  6  7  1  0  0  0  0 
  7  8  1  0  0  0  0 
  8  9  1  0  0  0  0 
  3  9  1  0  0  0  0 
  9 10  2  0  0  0  0 
  7 11  2  0  0  0  0 
 11 12  1  0  0  0  0 
 12 13  2  0  0  0  0 
 13 14  1  0  0  0  0 
  6 14  2  0  0  0  0 
 16  1  2  0  0  0  0 
  1 17  1  0  0  0  0 
 15 16  1  0  0  0  0 
 17 18  2  0  0  0  0 
 18 19  1  0  0  0  0 
 15 19  2  0  0  0  0 
 19 20  1  0  0  0  0 
 20 21  2  0  0  0  0 
 20 22  1  0  0  0  0 
  2 23  1  0  0  0  0 
 23 24  1  0  0  0  0 
 24 25  1  0  0  0  0 
 24 26  2  0  0  0  0 
  2 27  1  0  0  0  0 
  5 28  1  0  0  0  0 
 11 29  1  0  0  0  0 
 12 30  1  0  0  0  0 
 13 31  1  0  0  0  0 
 14 32  1  0  0  0  0 
 15 33  1  0  0  0  0 
 16 34  1  0  0  0  0 
 17 35  1  0  0  0  0 
 18 36  1  0  0  0  0 
 23 37  1  0  0  0  0 
 23 38  1  0  0  0  0 
 25 39  1  0  0  0  0 
M  CHG  1  20   1
M  CHG  1  22  -1
M  END
> <cdk:Title>
acenocoumarol

> <Conformer>
6

> <SuperDrugID>
SD000025

$$$$
acenocoumarol
  CDK     0628171802

 39 41  0  0  0  0  0  0  0  0999 V2000
   -1.4415   -3.1287   -0.7011 C   0  0  0  0  0  0  0  0  0  0  0  0
   -0.4859   -1.9940   -0.9144 C   0  0  2  0  0  0  0  0  0  0  0  0
    0.8427   -2.5152   -1.4265 C   0  0  0  0  0  0  0  0  0  0  0  0
    1.0371   -2.7481   -2.8190 C   0  0  0  0  0  0  0  0  0  0  0  0
    0.0361   -2.4587   -3.6940 O   0  0  0  0  0  0  0  0  0  0  0  0
    2.2406   -3.2902   -3.3348 C   0  0  0  0  0  0  0  0  0  0  0  0
    3.2733   -3.6093   -2.4199 C   0  0  0  0  0  0  0  0  0  0  0  0
    3.0846   -3.3724   -1.0945 O   0  0  0  0  0  0  0  0  0  0  0  0
    1.9360   -2.8494   -0.5833 C   0  0  0  0  0  0  0  0  0  0  0  0
    1.9383   -2.7147    0.6586 O   0  0  0  0  0  0  0  0  0  0  0  0
    4.4845   -4.1720   -2.8655 C   0  0  0  0  0  0  0  0  0  0  0  0
    4.6847   -4.4130   -4.2361 C   0  0  0  0  0  0  0  0  0  0  0  0
    3.6703   -4.0937   -5.1565 C   0  0  0  0  0  0  0  0  0  0  0  0
    2.4554   -3.5382   -4.7116 C   0  0  0  0  0  0  0  0  0  0  0  0
   -2.1248   -5.1630    0.4918 C   0  0  0  0  0  0  0  0  0  0  0  0
   -1.1989   -4.1269    0.2705 C   0  0  0  0  0  0  0  0  0  0  0  0
   -2.6416   -3.2074   -1.4437 C   0  0  0  0  0  0  0  0  0  0  0  0
   -3.5700   -4.2376   -1.2151 C   0  0  0  0  0  0  0  0  0  0  0  0
   -3.3407   -5.2362   -0.2356 C   0  0  0  0  0  0  0  0  0  0  0  0
   -4.2515   -6.1999   -0.0026 N   0  0  0  0  0  0  0  0  0  0  0  0
   -4.1029   -7.0359    0.7999 O   0  0  0  0  0  0  0  0  0  0  0  0
   -5.3574   -6.2667   -0.6269 O   0  0  0  0  0  0  0  0  0  0  0  0
   -0.4477   -1.0304    0.3200 C   0  0  2  0  0  0  0  0  0  0  0  0
   -1.7441   -0.4064    0.6812 C   0  0  0  0  0  0  0  0  0  0  0  0
   -2.7709   -1.1564    1.1517 O   0  0  0  0  0  0  0  0  0  0  0  0
   -1.9107    0.8319    0.6021 O   0  0  0  0  0  0  0  0  0  0  0  0
   -0.8808   -1.3426   -1.7032 H   0  0  0  0  0  0  0  0  0  0  0  0
   -0.4467   -3.3040   -3.8164 H   0  0  0  0  0  0  0  0  0  0  0  0
    5.2190   -4.4095   -2.1950 H   0  0  0  0  0  0  0  0  0  0  0  0
    5.5643   -4.8233   -4.5623 H   0  0  0  0  0  0  0  0  0  0  0  0
    3.8167   -4.2665   -6.1536 H   0  0  0  0  0  0  0  0  0  0  0  0
    1.7348   -3.3183   -5.4039 H   0  0  0  0  0  0  0  0  0  0  0  0
   -1.9043   -5.8652    1.2025 H   0  0  0  0  0  0  0  0  0  0  0  0
   -0.3466   -4.1041    0.8337 H   0  0  0  0  0  0  0  0  0  0  0  0
   -2.8575   -2.5039   -2.1536 H   0  0  0  0  0  0  0  0  0  0  0  0
   -4.4272   -4.2434   -1.7735 H   0  0  0  0  0  0  0  0  0  0  0  0
    0.2768   -0.2409    0.1089 H   0  0  0  0  0  0  0  0  0  0  0  0
   -0.1184   -1.5514    1.2156 H   0  0  0  0  0  0  0  0  0  0  0  0
   -3.6185   -0.7389    1.4168 H   0  0  0  0  0  0  0  0  0  0  0  0
  2  1  1  0  0  0  0 
  2  3  1  0  0  0  0 
  3  4  2  0  0  0  0 
  4  5  1  0  0  0  0 
  4  6  1  0  0  0  0 
  6  7  1  0  0  0  0 
  7  8  1  0  0  0  0 
  8  9  1  0  0  0  0 
  3  9  1  0  0  0  0 
  9 10  2  0  0  0  0 
  7 11  2  0  0  0  0 
 11 12  1  0  0  0  0 
 12 13  2  0  0  0  0 
 13 14  1  0  0  0  0 
  6 14  2  0  0  0  0 
 16  1  2  0  0  0  0 
  1 17  1  0  0  0  0 
 15 16  1  0  0  0  0 
 17 18  2  0  0  0  0 
 18 19  1  0  0  0  0 
 15 19  2  0  0  0  0 
 19 20  1  0  0  0  0 
 20 21  2  0  0  0  0 
 20 22  1  0  0  0  0 
  2 23  1  0  0  0  0 
 23 24  1  0  0  0  0 
 24 25  1  0  0  0  0 
 24 26  2  0  0  0  0 
  2 27  1  0  0  0  0 
  5 28  1  0  0  0  0 
 11 29  1  0  0  0  0 
 12 30  1  0  0  0  0 
 13 31  1  0  0  0  0 
 14 32  1  0  0  0  0 
 15 33  1  0  0  0  0 
 16 34  1  0  0  0  0 
 17 35  1  0  0  0  0 
 18 36  1  0  0  0  0 
 23 37  1  0  0  0  0 
 23 38  1  0  0  0  0 
 25 39  1  0  0  0  0 
M  CHG  1  20   1
M  CHG  1  22  -1
M  END
> <cdk:Title>
acenocoumarol

> <Conformer>
7

> <SuperDrugID>
SD000025

$$$$
acenocoumarol
  CDK     0628171802

 39 41  0  0  0  0  0  0  0  0999 V2000
   -1.6019   -3.1013   -0.6257 C   0  0  0  0  0  0  0  0  0  0  0  0
   -0.6660   -1.9408   -0.8440 C   0  0  2  0  0  0  0  0  0  0  0  0
    0.6807   -2.4439   -1.3148 C   0  0  0  0  0  0  0  0  0  0  0  0
    0.9456   -2.6113   -2.7037 C   0  0  0  0  0  0  0  0  0  0  0  0
   -0.0275   -2.3368   -3.6154 O   0  0  0  0  0  0  0  0  0  0  0  0
    2.2006   -3.0670   -3.1757 C   0  0  0  0  0  0  0  0  0  0  0  0
    3.2061   -3.3665   -2.2234 C   0  0  0  0  0  0  0  0  0  0  0  0
    2.9339   -3.2272   -0.8994 O   0  0  0  0  0  0  0  0  0  0  0  0
    1.7331   -2.7958   -0.4274 C   0  0  0  0  0  0  0  0  0  0  0  0
    1.6557   -2.7335    0.8190 O   0  0  0  0  0  0  0  0  0  0  0  0
    4.4778   -3.8097   -2.6285 C   0  0  0  0  0  0  0  0  0  0  0  0
    4.7621   -3.9644   -3.9955 C   0  0  0  0  0  0  0  0  0  0  0  0
    3.7700   -3.6856   -4.9531 C   0  0  0  0  0  0  0  0  0  0  0  0
    2.4971   -3.2410   -4.5483 C   0  0  0  0  0  0  0  0  0  0  0  0
   -2.2026   -5.1998    0.5149 C   0  0  0  0  0  0  0  0  0  0  0  0
   -1.3467   -4.0950    0.3496 C   0  0  0  0  0  0  0  0  0  0  0  0
   -2.7765   -3.2450   -1.4014 C   0  0  0  0  0  0  0  0  0  0  0  0
   -3.6414   -4.3410   -1.2265 C   0  0  0  0  0  0  0  0  0  0  0  0
   -3.3757   -5.3497   -0.2675 C   0  0  0  0  0  0  0  0  0  0  0  0
   -4.2068   -6.3994   -0.1104 N   0  0  0  0  0  0  0  0  0  0  0  0
   -4.0145   -7.2551    0.6623 O   0  0  0  0  0  0  0  0  0  0  0  0
   -5.2724   -6.5409   -0.7905 O   0  0  0  0  0  0  0  0  0  0  0  0
   -0.6856   -0.9469    0.3678 C   0  0  2  0  0  0  0  0  0  0  0  0
    0.1712    0.2537    0.2258 C   0  0  0  0  0  0  0  0  0  0  0  0
   -0.3694    1.4907    0.2820 O   0  0  0  0  0  0  0  0  0  0  0  0
    1.4135    0.1735    0.0950 O   0  0  0  0  0  0  0  0  0  0  0  0
   -1.0745   -1.3238   -1.6543 H   0  0  0  0  0  0  0  0  0  0  0  0
   -0.4979   -3.1871   -3.7428 H   0  0  0  0  0  0  0  0  0  0  0  0
    5.1948   -4.0207   -1.9315 H   0  0  0  0  0  0  0  0  0  0  0  0
    5.6870   -4.2827   -4.2941 H   0  0  0  0  0  0  0  0  0  0  0  0
    3.9739   -3.8053   -5.9490 H   0  0  0  0  0  0  0  0  0  0  0  0
    1.7936   -3.0472   -5.2659 H   0  0  0  0  0  0  0  0  0  0  0  0
   -1.9573   -5.9003    1.2188 H   0  0  0  0  0  0  0  0  0  0  0  0
   -0.5277   -4.0276    0.9520 H   0  0  0  0  0  0  0  0  0  0  0  0
   -3.0146   -2.5468   -2.1076 H   0  0  0  0  0  0  0  0  0  0  0  0
   -4.4740   -4.3945   -1.8163 H   0  0  0  0  0  0  0  0  0  0  0  0
   -0.4060   -1.4511    1.2935 H   0  0  0  0  0  0  0  0  0  0  0  0
   -1.7179   -0.6030    0.5012 H   0  0  0  0  0  0  0  0  0  0  0  0
    0.2129    2.2767    0.2407 H   0  0  0  0  0  0  0  0  0  0  0  0
  2  1  1  0  0  0  0 
  2  3  1  0  0  0  0 
  3  4  2  0  0  0  0 
  4  5  1  0  0  0  0 
  4  6  1  0  0  0  0 
  6  7  1  0  0  0  0 
  7  8  1  0  0  0  0 
  8  9  1  0  0  0  0 
  3  9  1  0  0  0  0 
  9 10  2  0  0  0  0 
  7 11  2  0  0  0  0 
 11 12  1  0  0  0  0 
 12 13  2  0  0  0  0 
 13 14  1  0  0  0  0 
  6 14  2  0  0  0  0 
 16  1  2  0  0  0  0 
  1 17  1  0  0  0  0 
 15 16  1  0  0  0  0 
 17 18  2  0  0  0  0 
 18 19  1  0  0  0  0 
 15 19  2  0  0  0  0 
 19 20  1  0  0  0  0 
 20 21  2  0  0  0  0 
 20 22  1  0  0  0  0 
  2 23  1  0  0  0  0 
 23 24  1  0  0  0  0 
 24 25  1  0  0  0  0 
 24 26  2  0  0  0  0 
  2 27  1  0  0  0  0 
  5 28  1  0  0  0  0 
 11 29  1  0  0  0  0 
 12 30  1  0  0  0  0 
 13 31  1  0  0  0  0 
 14 32  1  0  0  0  0 
 15 33  1  0  0  0  0 
 16 34  1  0  0  0  0 
 17 35  1  0  0  0  0 
 18 36  1  0  0  0  0 
 23 37  1  0  0  0  0 
 23 38  1  0  0  0  0 
 25 39  1  0  0  0  0 
M  CHG  1  20   1
M  CHG  1  22  -1
M  END
> <cdk:Title>
acenocoumarol

> <Conformer>
8

> <SuperDrugID>
SD000025

$$$$
acenocoumarol
  CDK     0628171802

 39 41  0  0  0  0  0  0  0  0999 V2000
   -1.4457   -3.1300   -0.6879 C   0  0  0  0  0  0  0  0  0  0  0  0
   -0.4876   -1.9892   -0.8976 C   0  0  2  0  0  0  0  0  0  0  0  0
    0.8266   -2.5059   -1.4386 C   0  0  0  0  0  0  0  0  0  0  0  0
    0.9817   -2.7204   -2.8392 C   0  0  0  0  0  0  0  0  0  0  0  0
   -0.0490   -2.4331   -3.6786 O   0  0  0  0  0  0  0  0  0  0  0  0
    2.1736   -3.2454   -3.3949 C   0  0  0  0  0  0  0  0  0  0  0  0
    3.2322   -3.5638   -2.5093 C   0  0  0  0  0  0  0  0  0  0  0  0
    3.0820   -3.3389   -1.1765 O   0  0  0  0  0  0  0  0  0  0  0  0
    1.9446   -2.8331   -0.6242 C   0  0  0  0  0  0  0  0  0  0  0  0
    1.9788   -2.7011    0.6190 O   0  0  0  0  0  0  0  0  0  0  0  0
    4.4335   -4.1151   -2.9894 C   0  0  0  0  0  0  0  0  0  0  0  0
    4.5910   -4.3610   -4.3631 C   0  0  0  0  0  0  0  0  0  0  0  0
    3.5587   -4.0329   -5.2585 C   0  0  0  0  0  0  0  0  0  0  0  0
    2.3585   -3.4726   -4.7808 C   0  0  0  0  0  0  0  0  0  0  0  0
   -2.1453   -5.1624    0.5079 C   0  0  0  0  0  0  0  0  0  0  0  0
   -1.2147   -4.1304    0.2854 C   0  0  0  0  0  0  0  0  0  0  0  0
   -2.6304   -3.2302   -1.4542 C   0  0  0  0  0  0  0  0  0  0  0  0
   -3.5620   -4.2596   -1.2299 C   0  0  0  0  0  0  0  0  0  0  0  0
   -3.3522   -5.2451   -0.2330 C   0  0  0  0  0  0  0  0  0  0  0  0
   -4.2642   -6.2110   -0.0034 N   0  0  0  0  0  0  0  0  0  0  0  0
   -4.1100   -7.0588    0.7866 O   0  0  0  0  0  0  0  0  0  0  0  0
   -5.3738   -6.2715   -0.6236 O   0  0  0  0  0  0  0  0  0  0  0  0
   -0.4013   -1.0275    0.3373 C   0  0  2  0  0  0  0  0  0  0  0  0
   -1.6477   -0.3122    0.6963 C   0  0  0  0  0  0  0  0  0  0  0  0
   -2.8170   -0.4813    0.0335 O   0  0  0  0  0  0  0  0  0  0  0  0
   -1.6432    0.4830    1.6632 O   0  0  0  0  0  0  0  0  0  0  0  0
   -0.8888   -1.3268   -1.6724 H   0  0  0  0  0  0  0  0  0  0  0  0
   -0.4784   -3.2977   -3.8474 H   0  0  0  0  0  0  0  0  0  0  0  0
    5.1893   -4.3414   -2.3397 H   0  0  0  0  0  0  0  0  0  0  0  0
    5.4543   -4.7797   -4.7112 H   0  0  0  0  0  0  0  0  0  0  0  0
    3.6794   -4.2024   -6.2579 H   0  0  0  0  0  0  0  0  0  0  0  0
    1.6270   -3.2332   -5.4538 H   0  0  0  0  0  0  0  0  0  0  0  0
   -1.9296   -5.8574    1.2284 H   0  0  0  0  0  0  0  0  0  0  0  0
   -0.3657   -4.1165    0.8523 H   0  0  0  0  0  0  0  0  0  0  0  0
   -2.8360   -2.5415   -2.1811 H   0  0  0  0  0  0  0  0  0  0  0  0
   -4.4055   -4.2757   -1.8080 H   0  0  0  0  0  0  0  0  0  0  0  0
    0.3628   -0.2691    0.1315 H   0  0  0  0  0  0  0  0  0  0  0  0
   -0.1025   -1.5808    1.2290 H   0  0  0  0  0  0  0  0  0  0  0  0
   -3.6182   -0.0085    0.3400 H   0  0  0  0  0  0  0  0  0  0  0  0
  2  1  1  0  0  0  0 
  2  3  1  0  0  0  0 
  3  4  2  0  0  0  0 
  4  5  1  0  0  0  0 
  4  6  1  0  0  0  0 
  6  7  1  0  0  0  0 
  7  8  1  0  0  0  0 
  8  9  1  0  0  0  0 
  3  9  1  0  0  0  0 
  9 10  2  0  0  0  0 
  7 11  2  0  0  0  0 
 11 12  1  0  0  0  0 
 12 13  2  0  0  0  0 
 13 14  1  0  0  0  0 
  6 14  2  0  0  0  0 
 16  1  2  0  0  0  0 
  1 17  1  0  0  0  0 
 15 16  1  0  0  0  0 
 17 18  2  0  0  0  0 
 18 19  1  0  0  0  0 
 15 19  2  0  0  0  0 
 19 20  1  0  0  0  0 
 20 21  2  0  0  0  0 
 20 22  1  0  0  0  0 
  2 23  1  0  0  0  0 
 23 24  1  0  0  0  0 
 24 25  1  0  0  0  0 
 24 26  2  0  0  0  0 
  2 27  1  0  0  0  0 
  5 28  1  0  0  0  0 
 11 29  1  0  0  0  0 
 12 30  1  0  0  0  0 
 13 31  1  0  0  0  0 
 14 32  1  0  0  0  0 
 15 33  1  0  0  0  0 
 16 34  1  0  0  0  0 
 17 35  1  0  0  0  0 
 18 36  1  0  0  0  0 
 23 37  1  0  0  0  0 
 23 38  1  0  0  0  0 
 25 39  1  0  0  0  0 
M  CHG  1  20   1
M  CHG  1  22  -1
M  END
> <cdk:Title>
acenocoumarol

> <Conformer>
9

> <SuperDrugID>
SD000025

$$$$
acenocoumarol
  CDK     0628171802

 39 41  0  0  0  0  0  0  0  0999 V2000
   -1.6146   -3.0985   -0.6303 C   0  0  0  0  0  0  0  0  0  0  0  0
   -0.6781   -1.9380   -0.8372 C   0  0  2  0  0  0  0  0  0  0  0  0
    0.6771   -2.4364   -1.2954 C   0  0  0  0  0  0  0  0  0  0  0  0
    0.9621   -2.6164   -2.6802 C   0  0  0  0  0  0  0  0  0  0  0  0
    0.0029   -2.3457   -3.6025 O   0  0  0  0  0  0  0  0  0  0  0  0
    2.2223   -3.0747   -3.1391 C   0  0  0  0  0  0  0  0  0  0  0  0
    3.2167   -3.3589   -2.1705 C   0  0  0  0  0  0  0  0  0  0  0  0
    2.9312   -3.1897   -0.8518 O   0  0  0  0  0  0  0  0  0  0  0  0
    1.7274   -2.7513   -0.3936 C   0  0  0  0  0  0  0  0  0  0  0  0
    1.6363   -2.6530    0.8498 O   0  0  0  0  0  0  0  0  0  0  0  0
    4.4946   -3.8082   -2.5531 C   0  0  0  0  0  0  0  0  0  0  0  0
    4.7961   -3.9834   -3.9145 C   0  0  0  0  0  0  0  0  0  0  0  0
    3.8200   -3.7140   -4.8898 C   0  0  0  0  0  0  0  0  0  0  0  0
    2.5421   -3.2635   -4.5060 C   0  0  0  0  0  0  0  0  0  0  0  0
   -2.2048   -5.2020    0.5008 C   0  0  0  0  0  0  0  0  0  0  0  0
   -1.3491   -4.0993    0.3349 C   0  0  0  0  0  0  0  0  0  0  0  0
   -2.7880   -3.2460   -1.4122 C   0  0  0  0  0  0  0  0  0  0  0  0
   -3.6517   -4.3452   -1.2343 C   0  0  0  0  0  0  0  0  0  0  0  0
   -3.3835   -5.3511   -0.2718 C   0  0  0  0  0  0  0  0  0  0  0  0
   -4.2105   -6.3998   -0.0998 N   0  0  0  0  0  0  0  0  0  0  0  0
   -4.0128   -7.2458    0.6819 O   0  0  0  0  0  0  0  0  0  0  0  0
   -5.2764   -6.5533   -0.7730 O   0  0  0  0  0  0  0  0  0  0  0  0
   -0.6821   -0.9200    0.3583 C   0  0  2  0  0  0  0  0  0  0  0  0
    0.2487    0.2276    0.2248 C   0  0  0  0  0  0  0  0  0  0  0  0
    0.8693    0.5244   -0.9429 O   0  0  0  0  0  0  0  0  0  0  0  0
    0.4765    0.9680    1.2085 O   0  0  0  0  0  0  0  0  0  0  0  0
   -1.0827   -1.3265   -1.6499 H   0  0  0  0  0  0  0  0  0  0  0  0
   -0.4709   -3.1944   -3.7285 H   0  0  0  0  0  0  0  0  0  0  0  0
    5.2050   -4.0053   -1.8441 H   0  0  0  0  0  0  0  0  0  0  0  0
    5.7252   -4.3059   -4.1948 H   0  0  0  0  0  0  0  0  0  0  0  0
    4.0437   -3.8433   -5.8792 H   0  0  0  0  0  0  0  0  0  0  0  0
    1.8536   -3.0726   -5.2360 H   0  0  0  0  0  0  0  0  0  0  0  0
   -1.9528   -5.9037    1.2006 H   0  0  0  0  0  0  0  0  0  0  0  0
   -0.5217   -4.0452    0.9294 H   0  0  0  0  0  0  0  0  0  0  0  0
   -3.0277   -2.5517   -2.1271 H   0  0  0  0  0  0  0  0  0  0  0  0
   -4.4863   -4.4027   -1.8248 H   0  0  0  0  0  0  0  0  0  0  0  0
   -0.4683   -1.4368    1.2953 H   0  0  0  0  0  0  0  0  0  0  0  0
   -1.6843   -0.4981    0.4658 H   0  0  0  0  0  0  0  0  0  0  0  0
    1.4842    1.2845   -0.9961 H   0  0  0  0  0  0  0  0  0  0  0  0
  2  1  1  0  0  0  0 
  2  3  1  0  0  0  0 
  3  4  2  0  0  0  0 
  4  5  1  0  0  0  0 
  4  6  1  0  0  0  0 
  6  7  1  0  0  0  0 
  7  8  1  0  0  0  0 
  8  9  1  0  0  0  0 
  3  9  1  0  0  0  0 
  9 10  2  0  0  0  0 
  7 11  2  0  0  0  0 
 11 12  1  0  0  0  0 
 12 13  2  0  0  0  0 
 13 14  1  0  0  0  0 
  6 14  2  0  0  0  0 
 16  1  2  0  0  0  0 
  1 17  1  0  0  0  0 
 15 16  1  0  0  0  0 
 17 18  2  0  0  0  0 
 18 19  1  0  0  0  0 
 15 19  2  0  0  0  0 
 19 20  1  0  0  0  0 
 20 21  2  0  0  0  0 
 20 22  1  0  0  0  0 
  2 23  1  0  0  0  0 
 23 24  1  0  0  0  0 
 24 25  1  0  0  0  0 
 24 26  2  0  0  0  0 
  2 27  1  0  0  0  0 
  5 28  1  0  0  0  0 
 11 29  1  0  0  0  0 
 12 30  1  0  0  0  0 
 13 31  1  0  0  0  0 
 14 32  1  0  0  0  0 
 15 33  1  0  0  0  0 
 16 34  1  0  0  0  0 
 17 35  1  0  0  0  0 
 18 36  1  0  0  0  0 
 23 37  1  0  0  0  0 
 23 38  1  0  0  0  0 
 25 39  1  0  0  0  0 
M  CHG  1  20   1
M  CHG  1  22  -1
M  END
> <cdk:Title>
acenocoumarol

> <Conformer>
10

> <SuperDrugID>
SD000025

$$$$
