phenylbutanoic acid
  CDK     0628171801

 24 24  0  0  0  0  0  0  0  0999 V2000
    2.1449    1.0214    0.5692 O   0  0  0  0  0  0  0  0  0  0  0  0
    1.7812   -0.1051   -0.0898 C   0  0  0  0  0  0  0  0  0  0  0  0
    2.2902   -0.3406   -1.2085 O   0  0  0  0  0  0  0  0  0  0  0  0
    0.8042   -1.0392    0.5022 C   0  0  1  0  0  0  0  0  0  0  0  0
   -0.6065   -0.4061    0.6081 C   0  0  1  0  0  0  0  0  0  0  0  0
   -1.6274   -1.3266    1.3292 C   0  0  2  0  0  0  0  0  0  0  0  0
   -2.9700   -0.6872    1.3822 C   0  0  0  0  0  0  0  0  0  0  0  0
   -3.9031   -0.8907    0.3387 C   0  0  0  0  0  0  0  0  0  0  0  0
   -5.1461   -0.2317    0.3504 C   0  0  0  0  0  0  0  0  0  0  0  0
   -5.4760    0.6284    1.4139 C   0  0  0  0  0  0  0  0  0  0  0  0
   -4.5627    0.8300    2.4650 C   0  0  0  0  0  0  0  0  0  0  0  0
   -3.3195    0.1706    2.4520 C   0  0  0  0  0  0  0  0  0  0  0  0
    2.8005    1.6379    0.1783 H   0  0  0  0  0  0  0  0  0  0  0  0
    0.7371   -1.9414   -0.1120 H   0  0  0  0  0  0  0  0  0  0  0  0
    1.1570   -1.3312    1.4941 H   0  0  0  0  0  0  0  0  0  0  0  0
   -0.5394    0.5382    1.1580 H   0  0  0  0  0  0  0  0  0  0  0  0
   -0.9700   -0.1873   -0.4027 H   0  0  0  0  0  0  0  0  0  0  0  0
   -1.2734   -1.5334    2.3426 H   0  0  0  0  0  0  0  0  0  0  0  0
   -1.6868   -2.2868    0.8094 H   0  0  0  0  0  0  0  0  0  0  0  0
   -3.6782   -1.5117   -0.4430 H   0  0  0  0  0  0  0  0  0  0  0  0
   -5.8083   -0.3739   -0.4166 H   0  0  0  0  0  0  0  0  0  0  0  0
   -6.3777    1.1090    1.4213 H   0  0  0  0  0  0  0  0  0  0  0  0
   -4.8013    1.4598    3.2356 H   0  0  0  0  0  0  0  0  0  0  0  0
   -2.6663    0.3296    3.2237 H   0  0  0  0  0  0  0  0  0  0  0  0
  1  2  1  0  0  0  0 
  2  3  2  0  0  0  0 
  2  4  1  0  0  0  0 
  4  5  1  0  0  0  0 
  5  6  1  0  0  0  0 
  6  7  1  0  0  0  0 
  7  8  2  0  0  0  0 
  8  9  1  0  0  0  0 
  9 10  2  0  0  0  0 
 10 11  1  0  0  0  0 
 11 12  2  0  0  0  0 
  7 12  1  0  0  0  0 
  1 13  1  0  0  0  0 
  4 14  1  0  0  0  0 
  4 15  1  0  0  0  0 
  5 16  1  0  0  0  0 
  5 17  1  0  0  0  0 
  6 18  1  0  0  0  0 
  6 19  1  0  0  0  0 
  8 20  1  0  0  0  0 
  9 21  1  0  0  0  0 
 10 22  1  0  0  0  0 
 11 23  1  0  0  0  0 
 12 24  1  0  0  0  0 
M  END
> <cdk:Title>
phenylbutanoic acid

> <Conformer>
1

> <SuperDrugID>
SD000007

$$$$
phenylbutanoic acid
  CDK     0628171801

 24 24  0  0  0  0  0  0  0  0999 V2000
    2.0563    1.1000    0.4773 O   0  0  0  0  0  0  0  0  0  0  0  0
    1.6329    0.0648   -0.2892 C   0  0  0  0  0  0  0  0  0  0  0  0
    2.4482   -0.4968   -1.0548 O   0  0  0  0  0  0  0  0  0  0  0  0
    0.2334   -0.3978   -0.2086 C   0  0  1  0  0  0  0  0  0  0  0  0
   -0.1404   -0.9156    1.2052 C   0  0  1  0  0  0  0  0  0  0  0  0
    0.6163   -2.2151    1.6008 C   0  0  2  0  0  0  0  0  0  0  0  0
    0.2905   -2.6552    2.9843 C   0  0  0  0  0  0  0  0  0  0  0  0
   -0.7863   -3.5416    3.2220 C   0  0  0  0  0  0  0  0  0  0  0  0
   -1.0931   -3.9641    4.5289 C   0  0  0  0  0  0  0  0  0  0  0  0
   -0.3299   -3.5024    5.6156 C   0  0  0  0  0  0  0  0  0  0  0  0
    0.7412   -2.6188    5.3955 C   0  0  0  0  0  0  0  0  0  0  0  0
    1.0483   -2.1950    4.0887 C   0  0  0  0  0  0  0  0  0  0  0  0
    2.9841    1.4137    0.4295 H   0  0  0  0  0  0  0  0  0  0  0  0
   -0.4108    0.4463   -0.4634 H   0  0  0  0  0  0  0  0  0  0  0  0
    0.0495   -1.1886   -0.9429 H   0  0  0  0  0  0  0  0  0  0  0  0
    0.0731   -0.1276    1.9334 H   0  0  0  0  0  0  0  0  0  0  0  0
   -1.2181   -1.1074    1.2328 H   0  0  0  0  0  0  0  0  0  0  0  0
    1.6956   -2.0532    1.5170 H   0  0  0  0  0  0  0  0  0  0  0  0
    0.3643   -3.0088    0.8896 H   0  0  0  0  0  0  0  0  0  0  0  0
   -1.3530   -3.8851    2.4419 H   0  0  0  0  0  0  0  0  0  0  0  0
   -1.8712   -4.6069    4.6880 H   0  0  0  0  0  0  0  0  0  0  0  0
   -0.5542   -3.8087    6.5650 H   0  0  0  0  0  0  0  0  0  0  0  0
    1.2965   -2.2846    6.1857 H   0  0  0  0  0  0  0  0  0  0  0  0
    1.8297   -1.5492    3.9467 H   0  0  0  0  0  0  0  0  0  0  0  0
  1  2  1  0  0  0  0 
  2  3  2  0  0  0  0 
  2  4  1  0  0  0  0 
  4  5  1  0  0  0  0 
  5  6  1  0  0  0  0 
  6  7  1  0  0  0  0 
  7  8  2  0  0  0  0 
  8  9  1  0  0  0  0 
  9 10  2  0  0  0  0 
 10 11  1  0  0  0  0 
 11 12  2  0  0  0  0 
  7 12  1  0  0  0  0 
  1 13  1  0  0  0  0 
  4 14  1  0  0  0  0 
  4 15  1  0  0  0  0 
  5 16  1  0  0  0  0 
  5 17  1  0  0  0  0 
  6 18  1  0  0  0  0 
  6 19  1  0  0  0  0 
  8 20  1  0  0  0  0 
  9 21  1  0  0  0  0 
 10 22  1  0  0  0  0 
 11 23  1  0  0  0  0 
 12 24  1  0  0  0  0 
M  END
> <cdk:Title>
phenylbutanoic acid

> <Conformer>
2

> <SuperDrugID>
SD000007

$$$$
phenylbutanoic acid
  CDK     0628171801

 24 24  0  0  0  0  0  0  0  0999 V2000
    2.0751    1.1029    0.4884 O   0  0  0  0  0  0  0  0  0  0  0  0
    1.6145    0.0897   -0.2811 C   0  0  0  0  0  0  0  0  0  0  0  0
    2.4079   -0.4830   -1.0619 O   0  0  0  0  0  0  0  0  0  0  0  0
    0.2022   -0.3238   -0.1882 C   0  0  1  0  0  0  0  0  0  0  0  0
   -0.0984   -0.9930    1.1755 C   0  0  1  0  0  0  0  0  0  0  0  0
   -1.6000   -1.3285    1.3622 C   0  0  2  0  0  0  0  0  0  0  0  0
   -1.8130   -1.9901    2.6765 C   0  0  0  0  0  0  0  0  0  0  0  0
   -2.0616   -1.2210    3.8376 C   0  0  0  0  0  0  0  0  0  0  0  0
   -2.2089   -1.8456    5.0895 C   0  0  0  0  0  0  0  0  0  0  0  0
   -2.1089   -3.2429    5.1979 C   0  0  0  0  0  0  0  0  0  0  0  0
   -1.8616   -4.0167    4.0516 C   0  0  0  0  0  0  0  0  0  0  0  0
   -1.7136   -3.3961    2.7979 C   0  0  0  0  0  0  0  0  0  0  0  0
    3.0132    1.3754    0.4268 H   0  0  0  0  0  0  0  0  0  0  0  0
   -0.4255    0.5608   -0.3178 H   0  0  0  0  0  0  0  0  0  0  0  0
   -0.0379   -1.0219   -0.9955 H   0  0  0  0  0  0  0  0  0  0  0  0
    0.4897   -1.9135    1.2478 H   0  0  0  0  0  0  0  0  0  0  0  0
    0.2156   -0.3228    1.9812 H   0  0  0  0  0  0  0  0  0  0  0  0
   -1.9358   -1.9805    0.5500 H   0  0  0  0  0  0  0  0  0  0  0  0
   -2.1906   -0.4085    1.3007 H   0  0  0  0  0  0  0  0  0  0  0  0
   -2.1226   -0.2010    3.7807 H   0  0  0  0  0  0  0  0  0  0  0  0
   -2.3808   -1.2807    5.9227 H   0  0  0  0  0  0  0  0  0  0  0  0
   -2.2152   -3.6957    6.1094 H   0  0  0  0  0  0  0  0  0  0  0  0
   -1.7807   -5.0319    4.1296 H   0  0  0  0  0  0  0  0  0  0  0  0
   -1.5187   -3.9749    1.9768 H   0  0  0  0  0  0  0  0  0  0  0  0
  1  2  1  0  0  0  0 
  2  3  2  0  0  0  0 
  2  4  1  0  0  0  0 
  4  5  1  0  0  0  0 
  5  6  1  0  0  0  0 
  6  7  1  0  0  0  0 
  7  8  2  0  0  0  0 
  8  9  1  0  0  0  0 
  9 10  2  0  0  0  0 
 10 11  1  0  0  0  0 
 11 12  2  0  0  0  0 
  7 12  1  0  0  0  0 
  1 13  1  0  0  0  0 
  4 14  1  0  0  0  0 
  4 15  1  0  0  0  0 
  5 16  1  0  0  0  0 
  5 17  1  0  0  0  0 
  6 18  1  0  0  0  0 
  6 19  1  0  0  0  0 
  8 20  1  0  0  0  0 
  9 21  1  0  0  0  0 
 10 22  1  0  0  0  0 
 11 23  1  0  0  0  0 
 12 24  1  0  0  0  0 
M  END
> <cdk:Title>
phenylbutanoic acid

> <Conformer>
3

> <SuperDrugID>
SD000007

$$$$
phenylbutanoic acid
  CDK     0628171801

 24 24  0  0  0  0  0  0  0  0999 V2000
    2.3292    1.0124    0.6136 O   0  0  0  0  0  0  0  0  0  0  0  0
    1.7583   -0.0427   -0.0144 C   0  0  0  0  0  0  0  0  0  0  0  0
    2.0273   -0.2563   -1.2186 O   0  0  0  0  0  0  0  0  0  0  0  0
    0.8236   -0.9148    0.7220 C   0  0  1  0  0  0  0  0  0  0  0  0
   -0.6533   -0.6450    0.3280 C   0  0  1  0  0  0  0  0  0  0  0  0
   -1.6431   -1.4844    1.1783 C   0  0  2  0  0  0  0  0  0  0  0  0
   -3.0590   -1.2171    0.8095 C   0  0  0  0  0  0  0  0  0  0  0  0
   -3.6949   -1.9783   -0.1998 C   0  0  0  0  0  0  0  0  0  0  0  0
   -5.0401   -1.7392   -0.5390 C   0  0  0  0  0  0  0  0  0  0  0  0
   -5.7629   -0.7308    0.1237 C   0  0  0  0  0  0  0  0  0  0  0  0
   -5.1398    0.0456    1.1175 C   0  0  0  0  0  0  0  0  0  0  0  0
   -3.7942   -0.1946    1.4560 C   0  0  0  0  0  0  0  0  0  0  0  0
    2.9293    1.6146    0.1289 H   0  0  0  0  0  0  0  0  0  0  0  0
    1.0833   -1.9612    0.5380 H   0  0  0  0  0  0  0  0  0  0  0  0
    0.9419   -0.7339    1.7929 H   0  0  0  0  0  0  0  0  0  0  0  0
   -0.8757    0.4171    0.4773 H   0  0  0  0  0  0  0  0  0  0  0  0
   -0.7948   -0.8791   -0.7321 H   0  0  0  0  0  0  0  0  0  0  0  0
   -1.4919   -1.2583    2.2386 H   0  0  0  0  0  0  0  0  0  0  0  0
   -1.4198   -2.5483    1.0508 H   0  0  0  0  0  0  0  0  0  0  0  0
   -3.1813   -2.7124   -0.6944 H   0  0  0  0  0  0  0  0  0  0  0  0
   -5.4922   -2.2995   -1.2670 H   0  0  0  0  0  0  0  0  0  0  0  0
   -6.7430   -0.5636   -0.1155 H   0  0  0  0  0  0  0  0  0  0  0  0
   -5.6649    0.7840    1.5947 H   0  0  0  0  0  0  0  0  0  0  0  0
   -3.3541    0.3824    2.1778 H   0  0  0  0  0  0  0  0  0  0  0  0
  1  2  1  0  0  0  0 
  2  3  2  0  0  0  0 
  2  4  1  0  0  0  0 
  4  5  1  0  0  0  0 
  5  6  1  0  0  0  0 
  6  7  1  0  0  0  0 
  7  8  2  0  0  0  0 
  8  9  1  0  0  0  0 
  9 10  2  0  0  0  0 
 10 11  1  0  0  0  0 
 11 12  2  0  0  0  0 
  7 12  1  0  0  0  0 
  1 13  1  0  0  0  0 
  4 14  1  0  0  0  0 
  4 15  1  0  0  0  0 
  5 16  1  0  0  0  0 
  5 17  1  0  0  0  0 
  6 18  1  0  0  0  0 
  6 19  1  0  0  0  0 
  8 20  1  0  0  0  0 
  9 21  1  0  0  0  0 
 10 22  1  0  0  0  0 
 11 23  1  0  0  0  0 
 12 24  1  0  0  0  0 
M  END
> <cdk:Title>
phenylbutanoic acid

> <Conformer>
4

> <SuperDrugID>
SD000007

$$$$
phenylbutanoic acid
  CDK     0628171801

 24 24  0  0  0  0  0  0  0  0999 V2000
    2.3403    1.0173    0.6128 O   0  0  0  0  0  0  0  0  0  0  0  0
    1.7633   -0.0412   -0.0024 C   0  0  0  0  0  0  0  0  0  0  0  0
    2.0227   -0.2564   -1.2067 O   0  0  0  0  0  0  0  0  0  0  0  0
    0.8172   -0.9084    0.7233 C   0  0  1  0  0  0  0  0  0  0  0  0
   -0.6610   -0.6621    0.3186 C   0  0  1  0  0  0  0  0  0  0  0  0
   -1.1869    0.7530    0.6871 C   0  0  2  0  0  0  0  0  0  0  0  0
   -2.6416    0.8903    0.4046 C   0  0  0  0  0  0  0  0  0  0  0  0
   -3.6021    0.6422    1.4151 C   0  0  0  0  0  0  0  0  0  0  0  0
   -4.9779    0.7708    1.1452 C   0  0  0  0  0  0  0  0  0  0  0  0
   -5.4125    1.1438   -0.1385 C   0  0  0  0  0  0  0  0  0  0  0  0
   -4.4710    1.3804   -1.1560 C   0  0  0  0  0  0  0  0  0  0  0  0
   -3.0952    1.2497   -0.8873 C   0  0  0  0  0  0  0  0  0  0  0  0
    2.9322    1.6190    0.1138 H   0  0  0  0  0  0  0  0  0  0  0  0
    1.0715   -1.9515    0.5154 H   0  0  0  0  0  0  0  0  0  0  0  0
    0.9273   -0.7494    1.7989 H   0  0  0  0  0  0  0  0  0  0  0  0
   -0.7748   -0.8266   -0.7564 H   0  0  0  0  0  0  0  0  0  0  0  0
   -1.2777   -1.4078    0.8279 H   0  0  0  0  0  0  0  0  0  0  0  0
   -0.6337    1.5137    0.1300 H   0  0  0  0  0  0  0  0  0  0  0  0
   -0.9898    0.9427    1.7454 H   0  0  0  0  0  0  0  0  0  0  0  0
   -3.3059    0.3601    2.3530 H   0  0  0  0  0  0  0  0  0  0  0  0
   -5.6617    0.5907    1.8834 H   0  0  0  0  0  0  0  0  0  0  0  0
   -6.4111    1.2423   -0.3326 H   0  0  0  0  0  0  0  0  0  0  0  0
   -4.7864    1.6459   -2.0914 H   0  0  0  0  0  0  0  0  0  0  0  0
   -2.4259    1.4173   -1.6432 H   0  0  0  0  0  0  0  0  0  0  0  0
  1  2  1  0  0  0  0 
  2  3  2  0  0  0  0 
  2  4  1  0  0  0  0 
  4  5  1  0  0  0  0 
  5  6  1  0  0  0  0 
  6  7  1  0  0  0  0 
  7  8  2  0  0  0  0 
  8  9  1  0  0  0  0 
  9 10  2  0  0  0  0 
 10 11  1  0  0  0  0 
 11 12  2  0  0  0  0 
  7 12  1  0  0  0  0 
  1 13  1  0  0  0  0 
  4 14  1  0  0  0  0 
  4 15  1  0  0  0  0 
  5 16  1  0  0  0  0 
  5 17  1  0  0  0  0 
  6 18  1  0  0  0  0 
  6 19  1  0  0  0  0 
  8 20  1  0  0  0  0 
  9 21  1  0  0  0  0 
 10 22  1  0  0  0  0 
 11 23  1  0  0  0  0 
 12 24  1  0  0  0  0 
M  END
> <cdk:Title>
phenylbutanoic acid

> <Conformer>
5

> <SuperDrugID>
SD000007

$$$$
phenylbutanoic acid
  CDK     0628171801

 24 24  0  0  0  0  0  0  0  0999 V2000
    2.1169    1.2468    0.3745 O   0  0  0  0  0  0  0  0  0  0  0  0
    1.6040    0.1358   -0.2014 C   0  0  0  0  0  0  0  0  0  0  0  0
    2.3687   -0.6364   -0.8215 O   0  0  0  0  0  0  0  0  0  0  0  0
    0.1662   -0.1659   -0.0886 C   0  0  1  0  0  0  0  0  0  0  0  0
   -0.1173   -1.2469    0.9874 C   0  0  1  0  0  0  0  0  0  0  0  0
   -1.6402   -1.4659    1.1866 C   0  0  2  0  0  0  0  0  0  0  0  0
   -1.9401   -2.4970    2.2158 C   0  0  0  0  0  0  0  0  0  0  0  0
   -2.1066   -2.1335    3.5732 C   0  0  0  0  0  0  0  0  0  0  0  0
   -2.3898   -3.1096    4.5469 C   0  0  0  0  0  0  0  0  0  0  0  0
   -2.5074   -4.4609    4.1749 C   0  0  0  0  0  0  0  0  0  0  0  0
   -2.3545   -4.8346    2.8275 C   0  0  0  0  0  0  0  0  0  0  0  0
   -2.0711   -3.8585    1.8539 C   0  0  0  0  0  0  0  0  0  0  0  0
    3.0761    1.4349    0.3091 H   0  0  0  0  0  0  0  0  0  0  0  0
   -0.3713    0.7513    0.1682 H   0  0  0  0  0  0  0  0  0  0  0  0
   -0.2048   -0.5060   -1.0603 H   0  0  0  0  0  0  0  0  0  0  0  0
    0.3542   -2.1870    0.6848 H   0  0  0  0  0  0  0  0  0  0  0  0
    0.3311   -0.9370    1.9368 H   0  0  0  0  0  0  0  0  0  0  0  0
   -2.0888   -1.7547    0.2326 H   0  0  0  0  0  0  0  0  0  0  0  0
   -2.1010   -0.5167    1.4727 H   0  0  0  0  0  0  0  0  0  0  0  0
   -2.0239   -1.1559    3.8652 H   0  0  0  0  0  0  0  0  0  0  0  0
   -2.5094   -2.8356    5.5248 H   0  0  0  0  0  0  0  0  0  0  0  0
   -2.7081   -5.1713    4.8835 H   0  0  0  0  0  0  0  0  0  0  0  0
   -2.4488   -5.8155    2.5545 H   0  0  0  0  0  0  0  0  0  0  0  0
   -1.9624   -4.1516    0.8793 H   0  0  0  0  0  0  0  0  0  0  0  0
  1  2  1  0  0  0  0 
  2  3  2  0  0  0  0 
  2  4  1  0  0  0  0 
  4  5  1  0  0  0  0 
  5  6  1  0  0  0  0 
  6  7  1  0  0  0  0 
  7  8  2  0  0  0  0 
  8  9  1  0  0  0  0 
  9 10  2  0  0  0  0 
 10 11  1  0  0  0  0 
 11 12  2  0  0  0  0 
  7 12  1  0  0  0  0 
  1 13  1  0  0  0  0 
  4 14  1  0  0  0  0 
  4 15  1  0  0  0  0 
  5 16  1  0  0  0  0 
  5 17  1  0  0  0  0 
  6 18  1  0  0  0  0 
  6 19  1  0  0  0  0 
  8 20  1  0  0  0  0 
  9 21  1  0  0  0  0 
 10 22  1  0  0  0  0 
 11 23  1  0  0  0  0 
 12 24  1  0  0  0  0 
M  END
> <cdk:Title>
phenylbutanoic acid

> <Conformer>
6

> <SuperDrugID>
SD000007

$$$$
phenylbutanoic acid
  CDK     0628171801

 24 24  0  0  0  0  0  0  0  0999 V2000
    2.5838    0.9370    0.6441 O   0  0  0  0  0  0  0  0  0  0  0  0
    1.7437    0.0645    0.0429 C   0  0  0  0  0  0  0  0  0  0  0  0
    1.7699   -0.0282   -1.2047 O   0  0  0  0  0  0  0  0  0  0  0  0
    0.8357   -0.7777    0.8423 C   0  0  1  0  0  0  0  0  0  0  0  0
   -0.5453   -0.1261    1.1100 C   0  0  1  0  0  0  0  0  0  0  0  0
   -1.4538   -0.0277   -0.1479 C   0  0  2  0  0  0  0  0  0  0  0  0
   -2.8004    0.5067    0.1900 C   0  0  0  0  0  0  0  0  0  0  0  0
   -3.0376    1.9021    0.2055 C   0  0  0  0  0  0  0  0  0  0  0  0
   -4.3097    2.4080    0.5291 C   0  0  0  0  0  0  0  0  0  0  0  0
   -5.3580    1.5269    0.8489 C   0  0  0  0  0  0  0  0  0  0  0  0
   -5.1346    0.1388    0.8459 C   0  0  0  0  0  0  0  0  0  0  0  0
   -3.8630   -0.3679    0.5217 C   0  0  0  0  0  0  0  0  0  0  0  0
    3.2044    1.4751    0.1066 H   0  0  0  0  0  0  0  0  0  0  0  0
    0.6939   -1.7376    0.3406 H   0  0  0  0  0  0  0  0  0  0  0  0
    1.3152   -0.9872    1.8015 H   0  0  0  0  0  0  0  0  0  0  0  0
   -1.0606   -0.7357    1.8594 H   0  0  0  0  0  0  0  0  0  0  0  0
   -0.3982    0.8703    1.5387 H   0  0  0  0  0  0  0  0  0  0  0  0
   -1.5513   -1.0199   -0.6004 H   0  0  0  0  0  0  0  0  0  0  0  0
   -0.9795    0.6117   -0.8979 H   0  0  0  0  0  0  0  0  0  0  0  0
   -2.2849    2.5573   -0.0203 H   0  0  0  0  0  0  0  0  0  0  0  0
   -4.4720    3.4174    0.5308 H   0  0  0  0  0  0  0  0  0  0  0  0
   -6.2814    1.8949    1.0849 H   0  0  0  0  0  0  0  0  0  0  0  0
   -5.8963   -0.5026    1.0789 H   0  0  0  0  0  0  0  0  0  0  0  0
   -3.7171   -1.3806    0.5302 H   0  0  0  0  0  0  0  0  0  0  0  0
  1  2  1  0  0  0  0 
  2  3  2  0  0  0  0 
  2  4  1  0  0  0  0 
  4  5  1  0  0  0  0 
  5  6  1  0  0  0  0 
  6  7  1  0  0  0  0 
  7  8  2  0  0  0  0 
  8  9  1  0  0  0  0 
  9 10  2  0  0  0  0 
 10 11  1  0  0  0  0 
 11 12  2  0  0  0  0 
  7 12  1  0  0  0  0 
  1 13  1  0  0  0  0 
  4 14  1  0  0  0  0 
  4 15  1  0  0  0  0 
  5 16  1  0  0  0  0 
  5 17  1  0  0  0  0 
  6 18  1  0  0  0  0 
  6 19  1  0  0  0  0 
  8 20  1  0  0  0  0 
  9 21  1  0  0  0  0 
 10 22  1  0  0  0  0 
 11 23  1  0  0  0  0 
 12 24  1  0  0  0  0 
M  END
> <cdk:Title>
phenylbutanoic acid

> <Conformer>
7

> <SuperDrugID>
SD000007

$$$$
phenylbutanoic acid
  CDK     0628171801

 24 24  0  0  0  0  0  0  0  0999 V2000
    2.0796    1.2298    0.3676 O   0  0  0  0  0  0  0  0  0  0  0  0
    1.6322    0.0924   -0.2133 C   0  0  0  0  0  0  0  0  0  0  0  0
    2.4516   -0.6341   -0.8195 O   0  0  0  0  0  0  0  0  0  0  0  0
    0.2032   -0.2675   -0.1570 C   0  0  1  0  0  0  0  0  0  0  0  0
   -0.1805   -1.1245    1.0768 C   0  0  1  0  0  0  0  0  0  0  0  0
    0.3651   -2.5779    1.0299 C   0  0  2  0  0  0  0  0  0  0  0  0
   -0.1208   -3.3797    2.1833 C   0  0  0  0  0  0  0  0  0  0  0  0
   -1.3101   -4.1424    2.0845 C   0  0  0  0  0  0  0  0  0  0  0  0
   -1.7709   -4.8976    3.1786 C   0  0  0  0  0  0  0  0  0  0  0  0
   -1.0523   -4.8952    4.3868 C   0  0  0  0  0  0  0  0  0  0  0  0
    0.1281   -4.1384    4.5016 C   0  0  0  0  0  0  0  0  0  0  0  0
    0.5889   -3.3824    3.4078 C   0  0  0  0  0  0  0  0  0  0  0  0
    3.0284    1.4721    0.3050 H   0  0  0  0  0  0  0  0  0  0  0  0
   -0.3796    0.6574   -0.1334 H   0  0  0  0  0  0  0  0  0  0  0  0
   -0.0733   -0.8015   -1.0698 H   0  0  0  0  0  0  0  0  0  0  0  0
    0.1672   -0.6274    1.9871 H   0  0  0  0  0  0  0  0  0  0  0  0
   -1.2721   -1.1673    1.1240 H   0  0  0  0  0  0  0  0  0  0  0  0
    1.4573   -2.5642    1.0245 H   0  0  0  0  0  0  0  0  0  0  0  0
    0.0538   -3.0502    0.0950 H   0  0  0  0  0  0  0  0  0  0  0  0
   -1.8497   -4.1498    1.2166 H   0  0  0  0  0  0  0  0  0  0  0  0
   -2.6286   -5.4484    3.0945 H   0  0  0  0  0  0  0  0  0  0  0  0
   -1.3865   -5.4448    5.1814 H   0  0  0  0  0  0  0  0  0  0  0  0
    0.6513   -4.1382    5.3795 H   0  0  0  0  0  0  0  0  0  0  0  0
    1.4448   -2.8330    3.5110 H   0  0  0  0  0  0  0  0  0  0  0  0
  1  2  1  0  0  0  0 
  2  3  2  0  0  0  0 
  2  4  1  0  0  0  0 
  4  5  1  0  0  0  0 
  5  6  1  0  0  0  0 
  6  7  1  0  0  0  0 
  7  8  2  0  0  0  0 
  8  9  1  0  0  0  0 
  9 10  2  0  0  0  0 
 10 11  1  0  0  0  0 
 11 12  2  0  0  0  0 
  7 12  1  0  0  0  0 
  1 13  1  0  0  0  0 
  4 14  1  0  0  0  0 
  4 15  1  0  0  0  0 
  5 16  1  0  0  0  0 
  5 17  1  0  0  0  0 
  6 18  1  0  0  0  0 
  6 19  1  0  0  0  0 
  8 20  1  0  0  0  0 
  9 21  1  0  0  0  0 
 10 22  1  0  0  0  0 
 11 23  1  0  0  0  0 
 12 24  1  0  0  0  0 
M  END
> <cdk:Title>
phenylbutanoic acid

> <Conformer>
8

> <SuperDrugID>
SD000007

$$$$
phenylbutanoic acid
  CDK     0628171801

 24 24  0  0  0  0  0  0  0  0999 V2000
    2.1843    1.0978    0.5296 O   0  0  0  0  0  0  0  0  0  0  0  0
    1.7888   -0.0769   -0.0143 C   0  0  0  0  0  0  0  0  0  0  0  0
    2.2650   -0.4151   -1.1208 O   0  0  0  0  0  0  0  0  0  0  0  0
    0.8168   -0.9360    0.6914 C   0  0  1  0  0  0  0  0  0  0  0  0
   -0.6676   -0.5713    0.4128 C   0  0  1  0  0  0  0  0  0  0  0  0
   -1.0554    0.8766    0.8177 C   0  0  2  0  0  0  0  0  0  0  0  0
   -2.4664    1.2048    0.4797 C   0  0  0  0  0  0  0  0  0  0  0  0
   -3.5012    1.0327    1.4295 C   0  0  0  0  0  0  0  0  0  0  0  0
   -4.8297    1.3755    1.1147 C   0  0  0  0  0  0  0  0  0  0  0  0
   -5.1408    1.8886   -0.1568 C   0  0  0  0  0  0  0  0  0  0  0  0
   -4.1249    2.0563   -1.1147 C   0  0  0  0  0  0  0  0  0  0  0  0
   -2.7973    1.7114   -0.7999 C   0  0  0  0  0  0  0  0  0  0  0  0
    2.8272    1.6698    0.0608 H   0  0  0  0  0  0  0  0  0  0  0  0
    0.9785   -1.9763    0.3939 H   0  0  0  0  0  0  0  0  0  0  0  0
    1.0100   -0.8763    1.7643 H   0  0  0  0  0  0  0  0  0  0  0  0
   -0.8807   -0.7291   -0.6499 H   0  0  0  0  0  0  0  0  0  0  0  0
   -1.2918   -1.2647    0.9851 H   0  0  0  0  0  0  0  0  0  0  0  0
   -0.4005    1.5851    0.3066 H   0  0  0  0  0  0  0  0  0  0  0  0
   -0.8864    1.0040    1.8906 H   0  0  0  0  0  0  0  0  0  0  0  0
   -3.2941    0.6591    2.3585 H   0  0  0  0  0  0  0  0  0  0  0  0
   -5.5694    1.2536    1.8107 H   0  0  0  0  0  0  0  0  0  0  0  0
   -6.1057    2.1394   -0.3850 H   0  0  0  0  0  0  0  0  0  0  0  0
   -4.3514    2.4309   -2.0388 H   0  0  0  0  0  0  0  0  0  0  0  0
   -2.0712    1.8379   -1.5097 H   0  0  0  0  0  0  0  0  0  0  0  0
  1  2  1  0  0  0  0 
  2  3  2  0  0  0  0 
  2  4  1  0  0  0  0 
  4  5  1  0  0  0  0 
  5  6  1  0  0  0  0 
  6  7  1  0  0  0  0 
  7  8  2  0  0  0  0 
  8  9  1  0  0  0  0 
  9 10  2  0  0  0  0 
 10 11  1  0  0  0  0 
 11 12  2  0  0  0  0 
  7 12  1  0  0  0  0 
  1 13  1  0  0  0  0 
  4 14  1  0  0  0  0 
  4 15  1  0  0  0  0 
  5 16  1  0  0  0  0 
  5 17  1  0  0  0  0 
  6 18  1  0  0  0  0 
  6 19  1  0  0  0  0 
  8 20  1  0  0  0  0 
  9 21  1  0  0  0  0 
 10 22  1  0  0  0  0 
 11 23  1  0  0  0  0 
 12 24  1  0  0  0  0 
M  END
> <cdk:Title>
phenylbutanoic acid

> <Conformer>
9

> <SuperDrugID>
SD000007

$$$$
phenylbutanoic acid
  CDK     0628171801

 24 24  0  0  0  0  0  0  0  0999 V2000
    2.4490    1.1188    0.5564 O   0  0  0  0  0  0  0  0  0  0  0  0
    1.5869    0.2943   -0.0874 C   0  0  0  0  0  0  0  0  0  0  0  0
    2.0018   -0.3542   -1.0741 O   0  0  0  0  0  0  0  0  0  0  0  0
    0.1880    0.1697    0.3698 C   0  0  1  0  0  0  0  0  0  0  0  0
   -0.0182   -0.8688    1.5076 C   0  0  1  0  0  0  0  0  0  0  0  0
    0.8033   -0.5823    2.7950 C   0  0  2  0  0  0  0  0  0  0  0  0
    0.6325   -1.6323    3.8345 C   0  0  0  0  0  0  0  0  0  0  0  0
    1.4653   -2.7772    3.8429 C   0  0  0  0  0  0  0  0  0  0  0  0
    1.3296   -3.7572    4.8431 C   0  0  0  0  0  0  0  0  0  0  0  0
    0.3519   -3.6107    5.8439 C   0  0  0  0  0  0  0  0  0  0  0  0
   -0.4867   -2.4808    5.8451 C   0  0  0  0  0  0  0  0  0  0  0  0
   -0.3490   -1.5000    4.8461 C   0  0  0  0  0  0  0  0  0  0  0  0
    3.3847    1.1850    0.2688 H   0  0  0  0  0  0  0  0  0  0  0  0
   -0.1609    1.1524    0.7003 H   0  0  0  0  0  0  0  0  0  0  0  0
   -0.4327   -0.1312   -0.4806 H   0  0  0  0  0  0  0  0  0  0  0  0
   -1.0807   -0.8717    1.7665 H   0  0  0  0  0  0  0  0  0  0  0  0
    0.2278   -1.8643    1.1271 H   0  0  0  0  0  0  0  0  0  0  0  0
    0.5136    0.3921    3.1995 H   0  0  0  0  0  0  0  0  0  0  0  0
    1.8637   -0.5148    2.5416 H   0  0  0  0  0  0  0  0  0  0  0  0
    2.1828   -2.9002    3.1229 H   0  0  0  0  0  0  0  0  0  0  0  0
    1.9432   -4.5749    4.8454 H   0  0  0  0  0  0  0  0  0  0  0  0
    0.2520   -4.3231    6.5695 H   0  0  0  0  0  0  0  0  0  0  0  0
   -1.1944   -2.3722    6.5750 H   0  0  0  0  0  0  0  0  0  0  0  0
   -0.9662   -0.6839    4.8631 H   0  0  0  0  0  0  0  0  0  0  0  0
  1  2  1  0  0  0  0 
  2  3  2  0  0  0  0 
  2  4  1  0  0  0  0 
  4  5  1  0  0  0  0 
  5  6  1  0  0  0  0 
  6  7  1  0  0  0  0 
  7  8  2  0  0  0  0 
  8  9  1  0  0  0  0 
  9 10  2  0  0  0  0 
 10 11  1  0  0  0  0 
 11 12  2  0  0  0  0 
  7 12  1  0  0  0  0 
  1 13  1  0  0  0  0 
  4 14  1  0  0  0  0 
  4 15  1  0  0  0  0 
  5 16  1  0  0  0  0 
  5 17  1  0  0  0  0 
  6 18  1  0  0  0  0 
  6 19  1  0  0  0  0 
  8 20  1  0  0  0  0 
  9 21  1  0  0  0  0 
 10 22  1  0  0  0  0 
 11 23  1  0  0  0  0 
 12 24  1  0  0  0  0 
M  END
> <cdk:Title>
phenylbutanoic acid

> <Conformer>
10

> <SuperDrugID>
SD000007

$$$$
