aminomethylbenzoic acid
  CDK     0628171801

 20 20  0  0  0  0  0  0  0  0999 V2000
    1.5627    0.2533    0.6798 N   0  0  1  0  0  0  0  0  0  0  0  0
    0.1743    0.6895    0.5176 C   0  0  2  0  0  0  0  0  0  0  0  0
   -0.7156   -0.3315    1.1170 C   0  0  0  0  0  0  0  0  0  0  0  0
   -1.0614   -0.2725    2.4844 C   0  0  0  0  0  0  0  0  0  0  0  0
   -1.8916   -1.2511    3.0598 C   0  0  0  0  0  0  0  0  0  0  0  0
   -2.3984   -2.3254    2.2876 C   0  0  0  0  0  0  0  0  0  0  0  0
   -2.0380   -2.3817    0.9187 C   0  0  0  0  0  0  0  0  0  0  0  0
   -1.2088   -1.4036    0.3428 C   0  0  0  0  0  0  0  0  0  0  0  0
   -3.2405   -3.3198    2.8553 C   0  0  0  0  0  0  0  0  0  0  0  0
   -3.7238   -4.3468    2.1126 O   0  0  0  0  0  0  0  0  0  0  0  0
   -3.5783   -3.2988    4.0619 O   0  0  0  0  0  0  0  0  0  0  0  0
    1.6604   -0.6224    0.1597 H   0  0  0  0  0  0  0  0  0  0  0  0
    2.1485    0.9472    0.2130 H   0  0  0  0  0  0  0  0  0  0  0  0
   -0.0358    0.8230   -0.5468 H   0  0  0  0  0  0  0  0  0  0  0  0
    0.0452    1.6578    1.0074 H   0  0  0  0  0  0  0  0  0  0  0  0
   -0.7049    0.4854    3.0721 H   0  0  0  0  0  0  0  0  0  0  0  0
   -2.1202   -1.1663    4.0533 H   0  0  0  0  0  0  0  0  0  0  0  0
   -2.3749   -3.1378    0.3197 H   0  0  0  0  0  0  0  0  0  0  0  0
   -0.9630   -1.4834   -0.6472 H   0  0  0  0  0  0  0  0  0  0  0  0
   -4.3032   -5.0233    2.5197 H   0  0  0  0  0  0  0  0  0  0  0  0
  1  2  1  0  0  0  0 
  2  3  1  0  0  0  0 
  3  4  2  0  0  0  0 
  4  5  1  0  0  0  0 
  5  6  2  0  0  0  0 
  6  7  1  0  0  0  0 
  7  8  2  0  0  0  0 
  3  8  1  0  0  0  0 
  6  9  1  0  0  0  0 
  9 10  1  0  0  0  0 
  9 11  2  0  0  0  0 
  1 12  1  0  0  0  0 
  1 13  1  0  0  0  0 
  2 14  1  0  0  0  0 
  2 15  1  0  0  0  0 
  4 16  1  0  0  0  0 
  5 17  1  0  0  0  0 
  7 18  1  0  0  0  0 
  8 19  1  0  0  0  0 
 10 20  1  0  0  0  0 
M  END
> <cdk:Title>
aminomethylbenzoic acid

> <Conformer>
1

> <SuperDrugID>
SD000006

$$$$
aminomethylbenzoic acid
  CDK     0628171801

 20 20  0  0  0  0  0  0  0  0999 V2000
    1.5474   -0.0123    0.6005 N   0  0  1  0  0  0  0  0  0  0  0  0
    0.1251   -0.1328    0.2730 C   0  0  2  0  0  0  0  0  0  0  0  0
   -0.6665    0.4879    1.3612 C   0  0  0  0  0  0  0  0  0  0  0  0
   -1.0137    1.8554    1.3156 C   0  0  0  0  0  0  0  0  0  0  0  0
   -1.7490    2.4462    2.3598 C   0  0  0  0  0  0  0  0  0  0  0  0
   -2.1563    1.6881    3.4845 C   0  0  0  0  0  0  0  0  0  0  0  0
   -1.7969    0.3190    3.5261 C   0  0  0  0  0  0  0  0  0  0  0  0
   -1.0615   -0.2715    2.4827 C   0  0  0  0  0  0  0  0  0  0  0  0
   -2.9030    2.2713    4.5455 C   0  0  0  0  0  0  0  0  0  0  0  0
   -3.2928    1.5418    5.6226 O   0  0  0  0  0  0  0  0  0  0  0  0
   -3.2380    3.4787    4.5409 O   0  0  0  0  0  0  0  0  0  0  0  0
    2.0677   -0.3952   -0.1897 H   0  0  0  0  0  0  0  0  0  0  0  0
    1.7566    0.9884    0.6421 H   0  0  0  0  0  0  0  0  0  0  0  0
   -0.1259   -1.1904    0.1571 H   0  0  0  0  0  0  0  0  0  0  0  0
   -0.0640    0.3618   -0.6838 H   0  0  0  0  0  0  0  0  0  0  0  0
   -0.7261    2.4331    0.5214 H   0  0  0  0  0  0  0  0  0  0  0  0
   -1.9816    3.4396    2.2854 H   0  0  0  0  0  0  0  0  0  0  0  0
   -2.0647   -0.2695    4.3171 H   0  0  0  0  0  0  0  0  0  0  0  0
   -0.8119   -1.2612    2.5519 H   0  0  0  0  0  0  0  0  0  0  0  0
   -3.8068    1.9601    6.3435 H   0  0  0  0  0  0  0  0  0  0  0  0
  1  2  1  0  0  0  0 
  2  3  1  0  0  0  0 
  3  4  2  0  0  0  0 
  4  5  1  0  0  0  0 
  5  6  2  0  0  0  0 
  6  7  1  0  0  0  0 
  7  8  2  0  0  0  0 
  3  8  1  0  0  0  0 
  6  9  1  0  0  0  0 
  9 10  1  0  0  0  0 
  9 11  2  0  0  0  0 
  1 12  1  0  0  0  0 
  1 13  1  0  0  0  0 
  2 14  1  0  0  0  0 
  2 15  1  0  0  0  0 
  4 16  1  0  0  0  0 
  5 17  1  0  0  0  0 
  7 18  1  0  0  0  0 
  8 19  1  0  0  0  0 
 10 20  1  0  0  0  0 
M  END
> <cdk:Title>
aminomethylbenzoic acid

> <Conformer>
2

> <SuperDrugID>
SD000006

$$$$
aminomethylbenzoic acid
  CDK     0628171801

 20 20  0  0  0  0  0  0  0  0999 V2000
    1.4225   -0.1518    0.2127 N   0  0  1  0  0  0  0  0  0  0  0  0
    0.0937    0.4602    0.2691 C   0  0  2  0  0  0  0  0  0  0  0  0
   -0.6062   -0.0413    1.4738 C   0  0  0  0  0  0  0  0  0  0  0  0
   -0.4987    0.6358    2.7079 C   0  0  0  0  0  0  0  0  0  0  0  0
   -1.1489    0.1461    3.8530 C   0  0  0  0  0  0  0  0  0  0  0  0
   -1.9238   -1.0382    3.8091 C   0  0  0  0  0  0  0  0  0  0  0  0
   -2.0192   -1.7184    2.5698 C   0  0  0  0  0  0  0  0  0  0  0  0
   -1.3682   -1.2297    1.4221 C   0  0  0  0  0  0  0  0  0  0  0  0
   -2.5787   -1.5191    4.9759 C   0  0  0  0  0  0  0  0  0  0  0  0
   -2.4846   -0.8649    6.1597 O   0  0  0  0  0  0  0  0  0  0  0  0
   -3.2723   -2.5635    4.9713 O   0  0  0  0  0  0  0  0  0  0  0  0
    1.8994    0.2508   -0.5952 H   0  0  0  0  0  0  0  0  0  0  0  0
    1.9271    0.1590    1.0465 H   0  0  0  0  0  0  0  0  0  0  0  0
   -0.4569    0.2032   -0.6393 H   0  0  0  0  0  0  0  0  0  0  0  0
    0.2020    1.5474    0.2974 H   0  0  0  0  0  0  0  0  0  0  0  0
    0.0599    1.4904    2.7819 H   0  0  0  0  0  0  0  0  0  0  0  0
   -1.0458    0.6731    4.7228 H   0  0  0  0  0  0  0  0  0  0  0  0
   -2.5640   -2.5791    2.4829 H   0  0  0  0  0  0  0  0  0  0  0  0
   -1.4500   -1.7494    0.5447 H   0  0  0  0  0  0  0  0  0  0  0  0
   -2.9425   -1.2098    6.9549 H   0  0  0  0  0  0  0  0  0  0  0  0
  1  2  1  0  0  0  0 
  2  3  1  0  0  0  0 
  3  4  2  0  0  0  0 
  4  5  1  0  0  0  0 
  5  6  2  0  0  0  0 
  6  7  1  0  0  0  0 
  7  8  2  0  0  0  0 
  3  8  1  0  0  0  0 
  6  9  1  0  0  0  0 
  9 10  1  0  0  0  0 
  9 11  2  0  0  0  0 
  1 12  1  0  0  0  0 
  1 13  1  0  0  0  0 
  2 14  1  0  0  0  0 
  2 15  1  0  0  0  0 
  4 16  1  0  0  0  0 
  5 17  1  0  0  0  0 
  7 18  1  0  0  0  0 
  8 19  1  0  0  0  0 
 10 20  1  0  0  0  0 
M  END
> <cdk:Title>
aminomethylbenzoic acid

> <Conformer>
3

> <SuperDrugID>
SD000006

$$$$
aminomethylbenzoic acid
  CDK     0628171801

 20 20  0  0  0  0  0  0  0  0999 V2000
    1.5095   -0.1193    0.4735 N   0  0  1  0  0  0  0  0  0  0  0  0
    0.3630    0.5608    1.0790 C   0  0  2  0  0  0  0  0  0  0  0  0
   -0.8743   -0.1418    0.6670 C   0  0  0  0  0  0  0  0  0  0  0  0
   -1.3680   -1.2284    1.4203 C   0  0  0  0  0  0  0  0  0  0  0  0
   -2.5315   -1.9075    1.0206 C   0  0  0  0  0  0  0  0  0  0  0  0
   -3.2379   -1.5304   -0.1469 C   0  0  0  0  0  0  0  0  0  0  0  0
   -2.7315   -0.4460   -0.9043 C   0  0  0  0  0  0  0  0  0  0  0  0
   -1.5658    0.2359   -0.5048 C   0  0  0  0  0  0  0  0  0  0  0  0
   -4.4159   -2.2260   -0.5369 C   0  0  0  0  0  0  0  0  0  0  0  0
   -4.8974   -3.2636    0.1917 O   0  0  0  0  0  0  0  0  0  0  0  0
   -5.0649   -1.9187   -1.5634 O   0  0  0  0  0  0  0  0  0  0  0  0
    1.3985   -0.0403   -0.5404 H   0  0  0  0  0  0  0  0  0  0  0  0
    2.3398    0.4174    0.7278 H   0  0  0  0  0  0  0  0  0  0  0  0
    0.3523    1.6030    0.7518 H   0  0  0  0  0  0  0  0  0  0  0  0
    0.4763    0.5532    2.1662 H   0  0  0  0  0  0  0  0  0  0  0  0
   -0.8800   -1.5358    2.2655 H   0  0  0  0  0  0  0  0  0  0  0  0
   -2.8536   -2.6843    1.6011 H   0  0  0  0  0  0  0  0  0  0  0  0
   -3.2015   -0.1348   -1.7570 H   0  0  0  0  0  0  0  0  0  0  0  0
   -1.2215    1.0090   -1.0793 H   0  0  0  0  0  0  0  0  0  0  0  0
   -5.7106   -3.7322   -0.0907 H   0  0  0  0  0  0  0  0  0  0  0  0
  1  2  1  0  0  0  0 
  2  3  1  0  0  0  0 
  3  4  2  0  0  0  0 
  4  5  1  0  0  0  0 
  5  6  2  0  0  0  0 
  6  7  1  0  0  0  0 
  7  8  2  0  0  0  0 
  3  8  1  0  0  0  0 
  6  9  1  0  0  0  0 
  9 10  1  0  0  0  0 
  9 11  2  0  0  0  0 
  1 12  1  0  0  0  0 
  1 13  1  0  0  0  0 
  2 14  1  0  0  0  0 
  2 15  1  0  0  0  0 
  4 16  1  0  0  0  0 
  5 17  1  0  0  0  0 
  7 18  1  0  0  0  0 
  8 19  1  0  0  0  0 
 10 20  1  0  0  0  0 
M  END
> <cdk:Title>
aminomethylbenzoic acid

> <Conformer>
4

> <SuperDrugID>
SD000006

$$$$
aminomethylbenzoic acid
  CDK     0628171801

 20 20  0  0  0  0  0  0  0  0999 V2000
    1.6906    0.3262    0.6724 N   0  0  1  0  0  0  0  0  0  0  0  0
    0.3946    0.4579    1.3445 C   0  0  2  0  0  0  0  0  0  0  0  0
   -0.6799   -0.0382    0.4506 C   0  0  0  0  0  0  0  0  0  0  0  0
   -1.0685   -1.3956    0.4715 C   0  0  0  0  0  0  0  0  0  0  0  0
   -2.0824   -1.8676   -0.3830 C   0  0  0  0  0  0  0  0  0  0  0  0
   -2.7365   -0.9971   -1.2893 C   0  0  0  0  0  0  0  0  0  0  0  0
   -2.3360    0.3609   -1.3085 C   0  0  0  0  0  0  0  0  0  0  0  0
   -1.3228    0.8331   -0.4548 C   0  0  0  0  0  0  0  0  0  0  0  0
   -3.7638   -1.4605   -2.1568 C   0  0  0  0  0  0  0  0  0  0  0  0
   -4.3883   -0.6242   -3.0247 O   0  0  0  0  0  0  0  0  0  0  0  0
   -4.1412   -2.6550   -2.1655 O   0  0  0  0  0  0  0  0  0  0  0  0
    1.7982   -0.6594    0.4231 H   0  0  0  0  0  0  0  0  0  0  0  0
    1.6268    0.8495   -0.2036 H   0  0  0  0  0  0  0  0  0  0  0  0
    0.2354    1.5075    1.6037 H   0  0  0  0  0  0  0  0  0  0  0  0
    0.4202   -0.1113    2.2768 H   0  0  0  0  0  0  0  0  0  0  0  0
   -0.6118   -2.0517    1.1099 H   0  0  0  0  0  0  0  0  0  0  0  0
   -2.3359   -2.8566   -0.3318 H   0  0  0  0  0  0  0  0  0  0  0  0
   -2.7774    1.0279   -1.9445 H   0  0  0  0  0  0  0  0  0  0  0  0
   -1.0563    1.8199   -0.5017 H   0  0  0  0  0  0  0  0  0  0  0  0
   -5.0925   -0.9598   -3.6153 H   0  0  0  0  0  0  0  0  0  0  0  0
  1  2  1  0  0  0  0 
  2  3  1  0  0  0  0 
  3  4  2  0  0  0  0 
  4  5  1  0  0  0  0 
  5  6  2  0  0  0  0 
  6  7  1  0  0  0  0 
  7  8  2  0  0  0  0 
  3  8  1  0  0  0  0 
  6  9  1  0  0  0  0 
  9 10  1  0  0  0  0 
  9 11  2  0  0  0  0 
  1 12  1  0  0  0  0 
  1 13  1  0  0  0  0 
  2 14  1  0  0  0  0 
  2 15  1  0  0  0  0 
  4 16  1  0  0  0  0 
  5 17  1  0  0  0  0 
  7 18  1  0  0  0  0 
  8 19  1  0  0  0  0 
 10 20  1  0  0  0  0 
M  END
> <cdk:Title>
aminomethylbenzoic acid

> <Conformer>
5

> <SuperDrugID>
SD000006

$$$$
aminomethylbenzoic acid
  CDK     0628171801

 20 20  0  0  0  0  0  0  0  0999 V2000
    1.6531   -0.1166    0.5052 N   0  0  1  0  0  0  0  0  0  0  0  0
    0.3829   -0.3152    1.2097 C   0  0  2  0  0  0  0  0  0  0  0  0
   -0.6574    0.5518    0.6077 C   0  0  0  0  0  0  0  0  0  0  0  0
   -1.4482    0.0906   -0.4677 C   0  0  0  0  0  0  0  0  0  0  0  0
   -2.4289    0.9163   -1.0419 C   0  0  0  0  0  0  0  0  0  0  0  0
   -2.6518    2.2322   -0.5691 C   0  0  0  0  0  0  0  0  0  0  0  0
   -1.8492    2.6920    0.5041 C   0  0  0  0  0  0  0  0  0  0  0  0
   -0.8661    1.8665    1.0809 C   0  0  0  0  0  0  0  0  0  0  0  0
   -3.6484    3.0555   -1.1602 C   0  0  0  0  0  0  0  0  0  0  0  0
   -4.4125    2.6110   -2.1877 O   0  0  0  0  0  0  0  0  0  0  0  0
   -3.8691    4.2242   -0.7657 O   0  0  0  0  0  0  0  0  0  0  0  0
    1.4826   -0.3229   -0.4817 H   0  0  0  0  0  0  0  0  0  0  0  0
    1.8752    0.8797    0.5659 H   0  0  0  0  0  0  0  0  0  0  0  0
    0.5232   -0.0786    2.2668 H   0  0  0  0  0  0  0  0  0  0  0  0
    0.1011   -1.3687    1.1425 H   0  0  0  0  0  0  0  0  0  0  0  0
   -1.3142   -0.8532   -0.8400 H   0  0  0  0  0  0  0  0  0  0  0  0
   -2.9812    0.5372   -1.8138 H   0  0  0  0  0  0  0  0  0  0  0  0
   -1.9695    3.6340    0.8832 H   0  0  0  0  0  0  0  0  0  0  0  0
   -0.3010    2.2312    1.8519 H   0  0  0  0  0  0  0  0  0  0  0  0
   -5.0947    3.1903   -2.5849 H   0  0  0  0  0  0  0  0  0  0  0  0
  1  2  1  0  0  0  0 
  2  3  1  0  0  0  0 
  3  4  2  0  0  0  0 
  4  5  1  0  0  0  0 
  5  6  2  0  0  0  0 
  6  7  1  0  0  0  0 
  7  8  2  0  0  0  0 
  3  8  1  0  0  0  0 
  6  9  1  0  0  0  0 
  9 10  1  0  0  0  0 
  9 11  2  0  0  0  0 
  1 12  1  0  0  0  0 
  1 13  1  0  0  0  0 
  2 14  1  0  0  0  0 
  2 15  1  0  0  0  0 
  4 16  1  0  0  0  0 
  5 17  1  0  0  0  0 
  7 18  1  0  0  0  0 
  8 19  1  0  0  0  0 
 10 20  1  0  0  0  0 
M  END
> <cdk:Title>
aminomethylbenzoic acid

> <Conformer>
6

> <SuperDrugID>
SD000006

$$$$
aminomethylbenzoic acid
  CDK     0628171801

 20 20  0  0  0  0  0  0  0  0999 V2000
    1.5470    0.1753    0.6267 N   0  0  1  0  0  0  0  0  0  0  0  0
    0.1536    0.5351    0.3420 C   0  0  1  0  0  0  0  0  0  0  0  0
   -0.8378   -0.4579    0.8341 C   0  0  0  0  0  0  0  0  0  0  0  0
   -0.5992   -1.8515    0.7806 C   0  0  0  0  0  0  0  0  0  0  0  0
   -1.5694   -2.7691    1.2287 C   0  0  0  0  0  0  0  0  0  0  0  0
   -2.8143   -2.3253    1.7363 C   0  0  0  0  0  0  0  0  0  0  0  0
   -3.0562   -0.9307    1.7686 C   0  0  0  0  0  0  0  0  0  0  0  0
   -2.0842   -0.0130    1.3292 C   0  0  0  0  0  0  0  0  0  0  0  0
   -3.7884   -3.2492    2.2009 C   0  0  0  0  0  0  0  0  0  0  0  0
   -3.5655   -4.5855    2.2043 O   0  0  0  0  0  0  0  0  0  0  0  0
   -4.8999   -2.8767    2.6427 O   0  0  0  0  0  0  0  0  0  0  0  0
    1.7549   -0.6648    0.0864 H   0  0  0  0  0  0  0  0  0  0  0  0
    2.1281    0.9179    0.2333 H   0  0  0  0  0  0  0  0  0  0  0  0
   -0.0175    1.5138    0.7988 H   0  0  0  0  0  0  0  0  0  0  0  0
    0.0331    0.6404   -0.7367 H   0  0  0  0  0  0  0  0  0  0  0  0
    0.2852   -2.2126    0.4122 H   0  0  0  0  0  0  0  0  0  0  0  0
   -1.3534   -3.7683    1.1772 H   0  0  0  0  0  0  0  0  0  0  0  0
   -3.9475   -0.5644    2.1131 H   0  0  0  0  0  0  0  0  0  0  0  0
   -2.2979    0.9885    1.3642 H   0  0  0  0  0  0  0  0  0  0  0  0
   -4.2554   -5.1950    2.5422 H   0  0  0  0  0  0  0  0  0  0  0  0
  1  2  1  0  0  0  0 
  2  3  1  0  0  0  0 
  3  4  2  0  0  0  0 
  4  5  1  0  0  0  0 
  5  6  2  0  0  0  0 
  6  7  1  0  0  0  0 
  7  8  2  0  0  0  0 
  3  8  1  0  0  0  0 
  6  9  1  0  0  0  0 
  9 10  1  0  0  0  0 
  9 11  2  0  0  0  0 
  1 12  1  0  0  0  0 
  1 13  1  0  0  0  0 
  2 14  1  0  0  0  0 
  2 15  1  0  0  0  0 
  4 16  1  0  0  0  0 
  5 17  1  0  0  0  0 
  7 18  1  0  0  0  0 
  8 19  1  0  0  0  0 
 10 20  1  0  0  0  0 
M  END
> <cdk:Title>
aminomethylbenzoic acid

> <Conformer>
7

> <SuperDrugID>
SD000006

$$$$
aminomethylbenzoic acid
  CDK     0628171801

 20 20  0  0  0  0  0  0  0  0999 V2000
    1.5689    0.3746    0.6537 N   0  0  1  0  0  0  0  0  0  0  0  0
    0.4129   -0.5135    0.8302 C   0  0  2  0  0  0  0  0  0  0  0  0
   -0.8985    0.1892    0.8735 C   0  0  0  0  0  0  0  0  0  0  0  0
   -1.9307   -0.2965    1.7072 C   0  0  0  0  0  0  0  0  0  0  0  0
   -3.1896    0.3297    1.7444 C   0  0  0  0  0  0  0  0  0  0  0  0
   -3.4614    1.4702    0.9525 C   0  0  0  0  0  0  0  0  0  0  0  0
   -2.4311    1.9468    0.1067 C   0  0  0  0  0  0  0  0  0  0  0  0
   -1.1732    1.3137    0.0618 C   0  0  0  0  0  0  0  0  0  0  0  0
   -4.7247    2.1196    1.0086 C   0  0  0  0  0  0  0  0  0  0  0  0
   -4.9926    3.2271    0.2771 O   0  0  0  0  0  0  0  0  0  0  0  0
   -5.6543    1.7115    1.7423 O   0  0  0  0  0  0  0  0  0  0  0  0
    2.3972   -0.2240    0.6146 H   0  0  0  0  0  0  0  0  0  0  0  0
    1.4832    0.8046   -0.2704 H   0  0  0  0  0  0  0  0  0  0  0  0
    0.5881   -1.0649    1.7568 H   0  0  0  0  0  0  0  0  0  0  0  0
    0.3946   -1.2286    0.0061 H   0  0  0  0  0  0  0  0  0  0  0  0
   -1.7744   -1.1218    2.2913 H   0  0  0  0  0  0  0  0  0  0  0  0
   -3.9048   -0.0625    2.3616 H   0  0  0  0  0  0  0  0  0  0  0  0
   -2.5840    2.7636   -0.4899 H   0  0  0  0  0  0  0  0  0  0  0  0
   -0.4612    1.6839   -0.5718 H   0  0  0  0  0  0  0  0  0  0  0  0
   -5.8734    3.6547    0.3423 H   0  0  0  0  0  0  0  0  0  0  0  0
  1  2  1  0  0  0  0 
  2  3  1  0  0  0  0 
  3  4  2  0  0  0  0 
  4  5  1  0  0  0  0 
  5  6  2  0  0  0  0 
  6  7  1  0  0  0  0 
  7  8  2  0  0  0  0 
  3  8  1  0  0  0  0 
  6  9  1  0  0  0  0 
  9 10  1  0  0  0  0 
  9 11  2  0  0  0  0 
  1 12  1  0  0  0  0 
  1 13  1  0  0  0  0 
  2 14  1  0  0  0  0 
  2 15  1  0  0  0  0 
  4 16  1  0  0  0  0 
  5 17  1  0  0  0  0 
  7 18  1  0  0  0  0 
  8 19  1  0  0  0  0 
 10 20  1  0  0  0  0 
M  END
> <cdk:Title>
aminomethylbenzoic acid

> <Conformer>
8

> <SuperDrugID>
SD000006

$$$$
aminomethylbenzoic acid
  CDK     0628171801

 20 20  0  0  0  0  0  0  0  0999 V2000
    1.5748    0.3573    0.6372 N   0  0  1  0  0  0  0  0  0  0  0  0
    0.2908   -0.2899    0.9398 C   0  0  1  0  0  0  0  0  0  0  0  0
   -0.8907    0.5886    0.7255 C   0  0  0  0  0  0  0  0  0  0  0  0
   -0.8221    1.9862    0.9268 C   0  0  0  0  0  0  0  0  0  0  0  0
   -1.9417    2.8041    0.6976 C   0  0  0  0  0  0  0  0  0  0  0  0
   -3.1796    2.2551    0.2830 C   0  0  0  0  0  0  0  0  0  0  0  0
   -3.2544    0.8526    0.1099 C   0  0  0  0  0  0  0  0  0  0  0  0
   -2.1292    0.0338    0.3266 C   0  0  0  0  0  0  0  0  0  0  0  0
   -4.3112    3.0862    0.0552 C   0  0  0  0  0  0  0  0  0  0  0  0
   -5.5090    2.5795   -0.3285 O   0  0  0  0  0  0  0  0  0  0  0  0
   -4.2563    4.3294    0.1992 O   0  0  0  0  0  0  0  0  0  0  0  0
    2.3011   -0.3561    0.7302 H   0  0  0  0  0  0  0  0  0  0  0  0
    1.5543    0.6362   -0.3455 H   0  0  0  0  0  0  0  0  0  0  0  0
    0.2211   -1.1788    0.3085 H   0  0  0  0  0  0  0  0  0  0  0  0
    0.3111   -0.6139    1.9816 H   0  0  0  0  0  0  0  0  0  0  0  0
    0.0486    2.4248    1.2378 H   0  0  0  0  0  0  0  0  0  0  0  0
   -1.8377    3.8120    0.8397 H   0  0  0  0  0  0  0  0  0  0  0  0
   -4.1293    0.4082   -0.1789 H   0  0  0  0  0  0  0  0  0  0  0  0
   -2.2237   -0.9755    0.1902 H   0  0  0  0  0  0  0  0  0  0  0  0
   -6.2692    3.1803   -0.4737 H   0  0  0  0  0  0  0  0  0  0  0  0
  1  2  1  0  0  0  0 
  2  3  1  0  0  0  0 
  3  4  2  0  0  0  0 
  4  5  1  0  0  0  0 
  5  6  2  0  0  0  0 
  6  7  1  0  0  0  0 
  7  8  2  0  0  0  0 
  3  8  1  0  0  0  0 
  6  9  1  0  0  0  0 
  9 10  1  0  0  0  0 
  9 11  2  0  0  0  0 
  1 12  1  0  0  0  0 
  1 13  1  0  0  0  0 
  2 14  1  0  0  0  0 
  2 15  1  0  0  0  0 
  4 16  1  0  0  0  0 
  5 17  1  0  0  0  0 
  7 18  1  0  0  0  0 
  8 19  1  0  0  0  0 
 10 20  1  0  0  0  0 
M  END
> <cdk:Title>
aminomethylbenzoic acid

> <Conformer>
9

> <SuperDrugID>
SD000006

$$$$
aminomethylbenzoic acid
  CDK     0628171801

 20 20  0  0  0  0  0  0  0  0999 V2000
    1.5593   -0.0417    0.5405 N   0  0  1  0  0  0  0  0  0  0  0  0
    0.1082   -0.2319    0.4028 C   0  0  1  0  0  0  0  0  0  0  0  0
   -0.7013    0.6149    1.3188 C   0  0  0  0  0  0  0  0  0  0  0  0
   -0.2255    0.9752    2.5997 C   0  0  0  0  0  0  0  0  0  0  0  0
   -0.9903    1.7929    3.4493 C   0  0  0  0  0  0  0  0  0  0  0  0
   -2.2674    2.2604    3.0604 C   0  0  0  0  0  0  0  0  0  0  0  0
   -2.7539    1.8739    1.7871 C   0  0  0  0  0  0  0  0  0  0  0  0
   -1.9844    1.0650    0.9314 C   0  0  0  0  0  0  0  0  0  0  0  0
   -3.0327    3.0876    3.9248 C   0  0  0  0  0  0  0  0  0  0  0  0
   -2.5629    3.4617    5.1393 O   0  0  0  0  0  0  0  0  0  0  0  0
   -4.1702    3.5060    3.6076 O   0  0  0  0  0  0  0  0  0  0  0  0
    2.0045   -0.6014   -0.1887 H   0  0  0  0  0  0  0  0  0  0  0  0
    1.7658    0.9369    0.3333 H   0  0  0  0  0  0  0  0  0  0  0  0
   -0.1507   -0.0220   -0.6373 H   0  0  0  0  0  0  0  0  0  0  0  0
   -0.1125   -1.2811    0.6031 H   0  0  0  0  0  0  0  0  0  0  0  0
    0.6864    0.6513    2.9275 H   0  0  0  0  0  0  0  0  0  0  0  0
   -0.5941    2.0395    4.3593 H   0  0  0  0  0  0  0  0  0  0  0  0
   -3.6756    2.1781    1.4653 H   0  0  0  0  0  0  0  0  0  0  0  0
   -2.3725    0.8089    0.0205 H   0  0  0  0  0  0  0  0  0  0  0  0
   -3.1017    4.0299    5.7268 H   0  0  0  0  0  0  0  0  0  0  0  0
  1  2  1  0  0  0  0 
  2  3  1  0  0  0  0 
  3  4  2  0  0  0  0 
  4  5  1  0  0  0  0 
  5  6  2  0  0  0  0 
  6  7  1  0  0  0  0 
  7  8  2  0  0  0  0 
  3  8  1  0  0  0  0 
  6  9  1  0  0  0  0 
  9 10  1  0  0  0  0 
  9 11  2  0  0  0  0 
  1 12  1  0  0  0  0 
  1 13  1  0  0  0  0 
  2 14  1  0  0  0  0 
  2 15  1  0  0  0  0 
  4 16  1  0  0  0  0 
  5 17  1  0  0  0  0 
  7 18  1  0  0  0  0 
  8 19  1  0  0  0  0 
 10 20  1  0  0  0  0 
M  END
> <cdk:Title>
aminomethylbenzoic acid

> <Conformer>
10

> <SuperDrugID>
SD000006

$$$$
